

        *** GPGPU-Sim Simulator Version 3.2.2  [build 17315] ***


GPGPU-Sim PTX: simulation mode 0 (can change with PTX_SIM_MODE_FUNC environment variable:
               1=functional simulation only, 0=detailed performance simulator)
GPGPU-Sim: Configuration options:

-network_mode                           1 # Interconnection network mode
-inter_config_file   config_fermi_islip.icnt # Interconnection network config file
-gpgpu_ptx_use_cuobjdump                    0 # Use cuobjdump to extract ptx and sass from binaries
-gpgpu_experimental_lib_support                    0 # Try to extract code from cuda libraries [Broken because of unknown cudaGetExportTable]
-gpgpu_ptx_convert_to_ptxplus                    0 # Convert SASS (native ISA) to ptxplus and run ptxplus
-gpgpu_ptx_force_max_capability                   20 # Force maximum compute capability
-gpgpu_ptx_inst_debug_to_file                    0 # Dump executed instructions' debug information to file
-gpgpu_ptx_inst_debug_file       inst_debug.txt # Executed instructions' debug output file
-gpgpu_ptx_inst_debug_thread_uid                    1 # Thread UID for executed instructions' debug output
-gpgpu_simd_model                       1 # 1 = post-dominator
-gpgpu_shader_core_pipeline              1536:32 # shader core pipeline config, i.e., {<nthread>:<warpsize>}
-gpgpu_tex_cache:l1  4:128:24,L:R:m:N,F:128:4,128:2 # per-shader L1 texture cache  (READ-ONLY) config  {<nsets>:<bsize>:<assoc>,<rep>:<wr>:<alloc>:<wr_alloc>,<mshr>:<N>:<merge>,<mq>:<rf>}
-gpgpu_const_cache:l1 64:64:2,L:R:f:N,A:2:32,4 # per-shader L1 constant memory cache  (READ-ONLY) config  {<nsets>:<bsize>:<assoc>,<rep>:<wr>:<alloc>:<wr_alloc>,<mshr>:<N>:<merge>,<mq>} 
-gpgpu_cache:il1     4:128:4,L:R:f:N,A:2:32,4 # shader L1 instruction cache config  {<nsets>:<bsize>:<assoc>,<rep>:<wr>:<alloc>:<wr_alloc>,<mshr>:<N>:<merge>,<mq>} 
-gpgpu_cache:dl1     32:128:4,L:L:m:N,A:32:8,8 # per-shader L1 data cache config  {<nsets>:<bsize>:<assoc>,<rep>:<wr>:<alloc>:<wr_alloc>,<mshr>:<N>:<merge>,<mq> | none}
-gpgpu_cache:dl1PrefL1                 none # per-shader L1 data cache config  {<nsets>:<bsize>:<assoc>,<rep>:<wr>:<alloc>:<wr_alloc>,<mshr>:<N>:<merge>,<mq> | none}
-gpgpu_cache:dl1PreShared                 none # per-shader L1 data cache config  {<nsets>:<bsize>:<assoc>,<rep>:<wr>:<alloc>:<wr_alloc>,<mshr>:<N>:<merge>,<mq> | none}
-gmem_skip_L1D                          0 # global memory access skip L1D cache (implements -Xptxas -dlcm=cg, default=no skip)
-gpgpu_perfect_mem                      0 # enable perfect memory mode (no cache miss)
-n_regfile_gating_group                    4 # group of lanes that should be read/written together)
-gpgpu_clock_gated_reg_file                    0 # enable clock gated reg file for power calculations
-gpgpu_clock_gated_lanes                    0 # enable clock gated lanes for power calculations
-gpgpu_shader_registers                32768 # Number of registers per shader core. Limits number of concurrent CTAs. (default 8192)
-gpgpu_shader_cta                       8 # Maximum number of concurrent CTAs in shader (default 8)
-gpgpu_n_clusters                      15 # number of processing clusters
-gpgpu_n_cores_per_cluster                    1 # number of simd cores per cluster
-gpgpu_n_cluster_ejection_buffer_size                    8 # number of packets in ejection buffer
-gpgpu_n_ldst_response_buffer_size                    2 # number of response packets in ld/st unit ejection buffer
-gpgpu_shmem_size                   16384 # Size of shared memory per shader core (default 16kB)
-gpgpu_shmem_size                   49152 # Size of shared memory per shader core (default 16kB)
-gpgpu_shmem_size_PrefL1                16384 # Size of shared memory per shader core (default 16kB)
-gpgpu_shmem_size_PrefShared                16384 # Size of shared memory per shader core (default 16kB)
-gpgpu_shmem_num_banks                   32 # Number of banks in the shared memory in each shader core (default 16)
-gpgpu_shmem_limited_broadcast                    0 # Limit shared memory to do one broadcast per cycle (default on)
-gpgpu_shmem_warp_parts                    1 # Number of portions a warp is divided into for shared memory bank conflict check 
-gpgpu_warpdistro_shader                   -1 # Specify which shader core to collect the warp size distribution from
-gpgpu_warp_issue_shader                    0 # Specify which shader core to collect the warp issue distribution from
-gpgpu_local_mem_map                    1 # Mapping from local memory space address to simulated GPU physical address space (default = enabled)
-gpgpu_num_reg_banks                   16 # Number of register banks (default = 8)
-gpgpu_reg_bank_use_warp_id                    0 # Use warp ID in mapping registers to banks (default = off)
-gpgpu_operand_collector_num_units_sp                    6 # number of collector units (default = 4)
-gpgpu_operand_collector_num_units_sfu                    8 # number of collector units (default = 4)
-gpgpu_operand_collector_num_units_mem                    2 # number of collector units (default = 2)
-gpgpu_operand_collector_num_units_gen                    0 # number of collector units (default = 0)
-gpgpu_operand_collector_num_in_ports_sp                    2 # number of collector unit in ports (default = 1)
-gpgpu_operand_collector_num_in_ports_sfu                    1 # number of collector unit in ports (default = 1)
-gpgpu_operand_collector_num_in_ports_mem                    1 # number of collector unit in ports (default = 1)
-gpgpu_operand_collector_num_in_ports_gen                    0 # number of collector unit in ports (default = 0)
-gpgpu_operand_collector_num_out_ports_sp                    2 # number of collector unit in ports (default = 1)
-gpgpu_operand_collector_num_out_ports_sfu                    1 # number of collector unit in ports (default = 1)
-gpgpu_operand_collector_num_out_ports_mem                    1 # number of collector unit in ports (default = 1)
-gpgpu_operand_collector_num_out_ports_gen                    0 # number of collector unit in ports (default = 0)
-gpgpu_coalesce_arch                   13 # Coalescing arch (default = 13, anything else is off for now)
-gpgpu_num_sched_per_core                    2 # Number of warp schedulers per core
-gpgpu_max_insn_issue_per_warp                    1 # Max number of instructions that can be issued per warp in one cycle by scheduler
-gpgpu_simt_core_sim_order                    1 # Select the simulation order of cores in a cluster (0=Fix, 1=Round-Robin)
-gpgpu_pipeline_widths        2,1,1,2,1,1,2 # Pipeline widths ID_OC_SP,ID_OC_SFU,ID_OC_MEM,OC_EX_SP,OC_EX_SFU,OC_EX_MEM,EX_WB
-gpgpu_num_sp_units                     2 # Number of SP units (default=1)
-gpgpu_num_sfu_units                    1 # Number of SF units (default=1)
-gpgpu_num_mem_units                    1 # Number if ldst units (default=1) WARNING: not hooked up to anything
-gpgpu_scheduler                      gto # Scheduler configuration: < lrr | gto | two_level_active > If two_level_active:<num_active_warps>:<inner_prioritization>:<outer_prioritization>For complete list of prioritization values see shader.h enum scheduler_prioritization_typeDefault: gto
-gpgpu_dram_scheduler                    1 # 0 = fifo, 1 = FR-FCFS (defaul)
-gpgpu_dram_partition_queues              8:8:8:8 # i2$:$2d:d2$:$2i
-l2_ideal                               0 # Use a ideal L2 cache that always hit
-gpgpu_cache:dl2     64:128:8,L:B:m:W,A:32:4,4:0,32 # unified banked L2 data cache config  {<nsets>:<bsize>:<assoc>,<rep>:<wr>:<alloc>:<wr_alloc>,<mshr>:<N>:<merge>,<mq>}
-gpgpu_cache:dl2_texture_only                    0 # L2 cache used for texture only
-gpgpu_n_mem                            6 # number of memory modules (e.g. memory controllers) in gpu
-gpgpu_n_sub_partition_per_mchannel                    2 # number of memory subpartition in each memory module
-gpgpu_n_mem_per_ctrlr                    2 # number of memory chips per memory controller
-gpgpu_memlatency_stat                   14 # track and display latency statistics 0x2 enables MC, 0x4 enables queue logs
-gpgpu_frfcfs_dram_sched_queue_size                   16 # 0 = unlimited (default); # entries per chip
-gpgpu_dram_return_queue_size                  116 # 0 = unlimited (default); # entries per chip
-gpgpu_dram_buswidth                    4 # default = 4 bytes (8 bytes per cycle at DDR)
-gpgpu_dram_burst_length                    8 # Burst length of each DRAM request (default = 4 data bus cycle)
-dram_data_command_freq_ratio                    4 # Frequency ratio between DRAM data bus and command bus (default = 2 times, i.e. DDR)
-gpgpu_dram_timing_opt nbk=16:CCD=2:RRD=6:RCD=12:RAS=28:RP=12:RC=40: CL=12:WL=4:CDLR=5:WR=12:nbkgrp=4:CCDL=3:RTPL=2 # DRAM timing parameters = {nbk:tCCD:tRRD:tRCD:tRAS:tRP:tRC:CL:WL:tCDLR:tWR:nbkgrp:tCCDL:tRTPL}
-rop_latency                          120 # ROP queue latency (default 85)
-dram_latency                         100 # DRAM latency (default 30)
-gpgpu_mem_addr_mapping dramid@8;00000000.00000000.00000000.00000000.0000RRRR.RRRRRRRR.BBBCCCCB.CCSSSSSS # mapping memory address to dram model {dramid@<start bit>;<memory address map>}
-gpgpu_mem_addr_test                    0 # run sweep test to check address mapping for aliased address
-gpgpu_mem_address_mask                    1 # 0 = old addressing mask, 1 = new addressing mask, 2 = new add. mask + flipped bank sel and chip sel bits
-gpuwattch_xml_file  gpuwattch_gtx480.xml # GPUWattch XML file
-power_simulation_enabled                    1 # Turn on power simulator (1=On, 0=Off)
-power_per_cycle_dump                    0 # Dump detailed power output each cycle
-power_trace_enabled                    0 # produce a file for the power trace (1=On, 0=Off)
-power_trace_zlevel                     6 # Compression level of the power trace output log (0=no comp, 9=highest)
-steady_power_levels_enabled                    0 # produce a file for the steady power levels (1=On, 0=Off)
-steady_state_definition                  8:4 # allowed deviation:number of samples
-gpgpu_max_cycle                        0 # terminates gpu simulation early (0 = no limit)
-gpgpu_max_insn                         0 # terminates gpu simulation early (0 = no limit)
-gpgpu_max_cta                          0 # terminates gpu simulation early (0 = no limit)
-gpgpu_runtime_stat                   500 # display runtime statistics such as dram utilization {<freq>:<flag>}
-liveness_message_freq                    1 # Minimum number of seconds between simulation liveness messages (0 = always print)
-gpgpu_flush_l1_cache                    0 # Flush L1 cache at the end of each kernel call
-gpgpu_flush_l2_cache                    0 # Flush L2 cache at the end of each kernel call
-gpgpu_deadlock_detect                    1 # Stop the simulation at deadlock (1=on (default), 0=off)
-gpgpu_ptx_instruction_classification                    0 # if enabled will classify ptx instruction types per kernel (Max 255 kernels now)
-gpgpu_ptx_sim_mode                     0 # Select between Performance (default) or Functional simulation (1)
-gpgpu_clock_domains 700.0:700.0:700.0:924.0 # Clock Domain Frequencies in MhZ {<Core Clock>:<ICNT Clock>:<L2 Clock>:<DRAM Clock>}
-gpgpu_max_concurrent_kernel                    8 # maximum kernels that can run concurrently on GPU
-gpgpu_cflog_interval                    0 # Interval between each snapshot in control flow logger
-visualizer_enabled                     0 # Turn on visualizer output (1=On, 0=Off)
-visualizer_outputfile                 NULL # Specifies the output log file for visualizer
-visualizer_zlevel                      6 # Compression level of the visualizer output log (0=no comp, 9=highest)
-trace_enabled                          0 # Turn on traces
-trace_components                    none # comma seperated list of traces to enable. Complete list found in trace_streams.tup. Default none
-trace_sampling_core                    0 # The core which is printed using CORE_DPRINTF. Default 0
-trace_sampling_memory_partition                   -1 # The memory partition which is printed using MEMPART_DPRINTF. Default -1 (i.e. all)
-enable_ptx_file_line_stats                    1 # Turn on PTX source line statistic profiling. (1 = On)
-ptx_line_stats_filename gpgpu_inst_stats.txt # Output file for PTX source line statistics.
-save_embedded_ptx                      0 # saves ptx files embedded in binary as <n>.ptx
-keep                                   0 # keep intermediate files created by GPGPU-Sim when interfacing with external programs
-gpgpu_ptx_save_converted_ptxplus                    0 # Saved converted ptxplus to a file
-ptx_opcode_latency_int         4,13,4,5,145 # Opcode latencies for integers <ADD,MAX,MUL,MAD,DIV>Default 1,1,19,25,145
-ptx_opcode_latency_fp          4,13,4,5,39 # Opcode latencies for single precision floating points <ADD,MAX,MUL,MAD,DIV>Default 1,1,1,1,30
-ptx_opcode_latency_dp         8,19,8,8,330 # Opcode latencies for double precision floating points <ADD,MAX,MUL,MAD,DIV>Default 8,8,8,8,335
-ptx_opcode_initiation_int            1,2,2,1,8 # Opcode initiation intervals for integers <ADD,MAX,MUL,MAD,DIV>Default 1,1,4,4,32
-ptx_opcode_initiation_fp            1,2,1,1,4 # Opcode initiation intervals for single precision floating points <ADD,MAX,MUL,MAD,DIV>Default 1,1,1,1,5
-ptx_opcode_initiation_dp         8,16,8,8,130 # Opcode initiation intervals for double precision floating points <ADD,MAX,MUL,MAD,DIV>Default 8,8,8,8,130
DRAM Timing Options:
nbk                                    16 # number of banks
CCD                                     2 # column to column delay
RRD                                     6 # minimal delay between activation of rows in different banks
RCD                                    12 # row to column delay
RAS                                    28 # time needed to activate row
RP                                     12 # time needed to precharge (deactivate) row
RC                                     40 # row cycle time
CDLR                                    5 # switching from write to read (changes tWTR)
WR                                     12 # last data-in to row precharge
CL                                     12 # CAS latency
WL                                      4 # Write latency
nbkgrp                                  4 # number of bank groups
CCDL                                    3 # column to column delay between accesses to different bank groups
RTPL                                    2 # read to precharge delay between accesses to different bank groups
Total number of memory sub partition = 12
addr_dec_mask[CHIP]  = 0000000000000000 	high:64 low:0
addr_dec_mask[BK]    = 000000000000e100 	high:16 low:8
addr_dec_mask[ROW]   = 000000000fff0000 	high:28 low:16
addr_dec_mask[COL]   = 0000000000001eff 	high:13 low:0
addr_dec_mask[BURST] = 000000000000003f 	high:6 low:0
sub_partition_id_mask = 0000000000000100
GPGPU-Sim uArch: clock freqs: 700000000.000000:700000000.000000:700000000.000000:924000000.000000
GPGPU-Sim uArch: clock periods: 0.00000000142857142857:0.00000000142857142857:0.00000000142857142857:0.00000000108225108225
*** Initializing Memory Statistics ***
GPGPU-Sim uArch: interconnect node map (shaderID+MemID to icntID)
GPGPU-Sim uArch: Memory nodes ID start from index: 15
GPGPU-Sim uArch:    0   1   2   3   4
GPGPU-Sim uArch:    5   6   7   8   9
GPGPU-Sim uArch:   10  11  12  13  14
GPGPU-Sim uArch:   15  16  17  18  19
GPGPU-Sim uArch:   20  21  22  23  24
GPGPU-Sim uArch:   25  26
GPGPU-Sim uArch: interconnect node reverse map (icntID to shaderID+MemID)
GPGPU-Sim uArch: Memory nodes start from ID: 15
GPGPU-Sim uArch:    0   1   2   3   4
GPGPU-Sim uArch:    5   6   7   8   9
GPGPU-Sim uArch:   10  11  12  13  14
GPGPU-Sim uArch:   15  16  17  18  19
GPGPU-Sim uArch:   20  21  22  23  24
GPGPU-Sim uArch:   25  26
GPGPU-Sim uArch: performance model initialization complete.
GPGPU-Sim PTX: __cudaRegisterFatBinary found PTX versions for 'src/cuda_short/cuenergy_pre8_coalesce.cu', capability = compute_10
GPGPU-Sim PTX: Loading PTX for src/cuda_short/cuenergy_pre8_coalesce.cu, capability = compute_10
GPGPU-Sim PTX: allocating constant region for "atominfo" from 0x100 to 0xfb00 (global memory space) 1
GPGPU-Sim PTX: instruction assembly for function '_Z7cenergyifPf'...   done.
GPGPU-Sim PTX: finding reconvergence points for '_Z7cenergyifPf'...
GPGPU-Sim PTX: Finding dominators for '_Z7cenergyifPf'...
GPGPU-Sim PTX: Finding immediate dominators for '_Z7cenergyifPf'...
GPGPU-Sim PTX: Finding postdominators for '_Z7cenergyifPf'...
GPGPU-Sim PTX: Finding immediate postdominators for '_Z7cenergyifPf'...
GPGPU-Sim PTX: pre-decoding instructions for '_Z7cenergyifPf'...
GPGPU-Sim PTX: reconvergence points for _Z7cenergyifPf...
GPGPU-Sim PTX:  1 (potential) branch divergence @  PC=0x058 (_1.ptx:69) @%p1 bra $Lt_0_2306;
GPGPU-Sim PTX:    immediate post dominator      @  PC=0x1a0 (_1.ptx:117) cvt.u32.u16 %r20, %nctaid.x;
GPGPU-Sim PTX:  2 (potential) branch divergence @  PC=0x168 (_1.ptx:107) @%p2 bra $Lt_0_1794;
GPGPU-Sim PTX:    immediate post dominator      @  PC=0x170 (_1.ptx:108) bra.uni $Lt_0_1282;
GPGPU-Sim PTX:  3 (potential) branch divergence @  PC=0x170 (_1.ptx:108) bra.uni $Lt_0_1282;
GPGPU-Sim PTX:    immediate post dominator      @  PC=0x1a0 (_1.ptx:117) cvt.u32.u16 %r20, %nctaid.x;
GPGPU-Sim PTX: ... end of reconvergence points for _Z7cenergyifPf
GPGPU-Sim PTX: ... done pre-decoding instructions for '_Z7cenergyifPf'.
GPGPU-Sim PTX: finished parsing EMBEDDED .ptx file _1.ptx
GPGPU-Sim PTX: extracting embedded .ptx to temporary file "_ptx_M9sqsi"
Running: cat _ptx_M9sqsi | sed 's/.version 1.5/.version 1.4/' | sed 's/, texmode_independent//' | sed 's/\(\.extern \.const\[1\] .b8 \w\+\)\[\]/\1\[1\]/' | sed 's/const\[.\]/const\[0\]/g' > _ptx2_zOST2i
GPGPU-Sim PTX: generating ptxinfo using "$CUDA_INSTALL_PATH/bin/ptxas  -v _ptx2_zOST2i --output-file  /dev/null 2> _ptx_M9sqsiinfo"
GPGPU-Sim PTX: Kernel '_Z7cenergyifPf' : regs=12, lmem=0, smem=32, cmem=64004
GPGPU-Sim PTX: removing ptxinfo using "rm -f _ptx_M9sqsi _ptx2_zOST2i _ptx_M9sqsiinfo"
GPGPU-Sim PTX: loading globals with explicit initializers... 
GPGPU-Sim PTX: finished loading globals (0 bytes total).
GPGPU-Sim PTX: loading constants with explicit initializers...  done.
GPGPU-Sim PTX: __cudaRegisterFunction _Z7cenergyifPf : hostFun 0x0x40209e, fat_cubin_handle = 1
GPGPU-Sim PTX: __cudaRegisterVar: hostVar = 0x6065a0; deviceAddress = atominfo; deviceName = atominfo
GPGPU-Sim PTX: __cudaRegisterVar: Registering const memory space of 64000 bytes
GPGPU-Sim PTX registering constant atominfo (64000 bytes) to name mapping
GPGPU-Sim PTX: __cudaRegisterFatBinary found PTX versions for 'src/cuda_short/main.cu', capability = compute_10
GPGPU-Sim PTX: Loading PTX for src/cuda_short/main.cu, capability = compute_10
GPGPU-Sim PTX: finished parsing EMBEDDED .ptx file _2.ptx
GPGPU-Sim PTX: extracting embedded .ptx to temporary file "_ptx_bcSFLj"
Running: cat _ptx_bcSFLj | sed 's/.version 1.5/.version 1.4/' | sed 's/, texmode_independent//' | sed 's/\(\.extern \.const\[1\] .b8 \w\+\)\[\]/\1\[1\]/' | sed 's/const\[.\]/const\[0\]/g' > _ptx2_1Iutuk
GPGPU-Sim PTX: generating ptxinfo using "$CUDA_INSTALL_PATH/bin/ptxas  -v _ptx2_1Iutuk --output-file  /dev/null 2> _ptx_bcSFLjinfo"
GPGPU-Sim PTX: removing ptxinfo using "rm -f _ptx_bcSFLj _ptx2_1Iutuk _ptx_bcSFLjinfo"
GPGPU-Sim PTX: loading globals with explicit initializers... 
GPGPU-Sim PTX: finished loading globals (0 bytes total).
GPGPU-Sim PTX: loading constants with explicit initializers...  done.
CUDA accelerated coulombic potential microbenchmark
Original version by John E. Stone <johns@ks.uiuc.edu>
This version maintained by Chris Rodrigues
GPGPU-Sim PTX: cudaMemcpyToSymbol: symbol = 0x6065a0
GPGPU-Sim PTX: starting gpgpu_ptx_sim_memcpy_symbol with hostVar 0x0x6065a0
GPGPU-Sim PTX: gpgpu_ptx_sim_memcpy_symbol: Found PTX symbol w/ hostVar=0x6065a0
GPGPU-Sim PTX: gpgpu_ptx_sim_memcpy_symbol: copying const memory 3200 bytes  to  symbol atominfo+0 @0x100 ...

GPGPU-Sim PTX: cudaLaunch for 0x0x40209e (mode=performance simulation) on stream 0
GPGPU-Sim PTX: pushing kernel '_Z7cenergyifPf' to stream 0, gridDim= (8,32,1) blockDim = (16,8,1) 
kernel '_Z7cenergyifPf' transfer to GPU hardware scheduler
GPGPU-Sim uArch: Shader 1 bind to kernel 1 '_Z7cenergyifPf'
GPGPU-Sim uArch: CTA/core = 8, limited by: cta_limit
GPGPU-Sim uArch: core:  1, cta: 0 initialized @(1,0)
GPGPU-Sim uArch: Shader 2 bind to kernel 1 '_Z7cenergyifPf'
GPGPU-Sim uArch: core:  2, cta: 0 initialized @(1,0)
GPGPU-Sim uArch: Shader 3 bind to kernel 1 '_Z7cenergyifPf'
GPGPU-Sim uArch: core:  3, cta: 0 initialized @(1,0)
GPGPU-Sim uArch: Shader 4 bind to kernel 1 '_Z7cenergyifPf'
GPGPU-Sim uArch: core:  4, cta: 0 initialized @(1,0)
GPGPU-Sim uArch: Shader 5 bind to kernel 1 '_Z7cenergyifPf'
GPGPU-Sim uArch: core:  5, cta: 0 initialized @(1,0)
GPGPU-Sim uArch: Shader 6 bind to kernel 1 '_Z7cenergyifPf'
GPGPU-Sim uArch: core:  6, cta: 0 initialized @(1,0)
GPGPU-Sim uArch: Shader 7 bind to kernel 1 '_Z7cenergyifPf'
GPGPU-Sim uArch: core:  7, cta: 0 initialized @(1,0)
GPGPU-Sim uArch: Shader 8 bind to kernel 1 '_Z7cenergyifPf'
GPGPU-Sim uArch: core:  8, cta: 0 initialized @(1,0)
GPGPU-Sim uArch: Shader 9 bind to kernel 1 '_Z7cenergyifPf'
GPGPU-Sim uArch: core:  9, cta: 0 initialized @(1,0)
GPGPU-Sim uArch: Shader 10 bind to kernel 1 '_Z7cenergyifPf'
GPGPU-Sim uArch: core: 10, cta: 0 initialized @(1,0)
GPGPU-Sim uArch: Shader 11 bind to kernel 1 '_Z7cenergyifPf'
GPGPU-Sim uArch: core: 11, cta: 0 initialized @(1,0)
GPGPU-Sim uArch: Shader 12 bind to kernel 1 '_Z7cenergyifPf'
GPGPU-Sim uArch: core: 12, cta: 0 initialized @(1,0)
GPGPU-Sim uArch: Shader 13 bind to kernel 1 '_Z7cenergyifPf'
GPGPU-Sim uArch: core: 13, cta: 0 initialized @(1,0)
GPGPU-Sim uArch: Shader 14 bind to kernel 1 '_Z7cenergyifPf'
GPGPU-Sim uArch: core: 14, cta: 0 initialized @(1,0)
GPGPU-Sim uArch: Shader 0 bind to kernel 1 '_Z7cenergyifPf'
GPGPU-Sim uArch: core:  0, cta: 0 initialized @(1,0)
GPGPU-Sim uArch: core:  1, cta: 1 initialized @(2,0)
GPGPU-Sim uArch: core:  2, cta: 1 initialized @(2,0)
GPGPU-Sim uArch: core:  3, cta: 1 initialized @(2,0)
GPGPU-Sim uArch: core:  4, cta: 1 initialized @(2,0)
GPGPU-Sim uArch: core:  5, cta: 1 initialized @(2,0)
GPGPU-Sim uArch: core:  6, cta: 1 initialized @(2,0)
GPGPU-Sim uArch: core:  7, cta: 1 initialized @(2,0)
GPGPU-Sim uArch: core:  8, cta: 1 initialized @(2,0)
GPGPU-Sim uArch: core:  9, cta: 1 initialized @(2,0)
GPGPU-Sim uArch: core: 10, cta: 1 initialized @(2,0)
GPGPU-Sim uArch: core: 11, cta: 1 initialized @(2,0)
GPGPU-Sim uArch: core: 12, cta: 1 initialized @(2,0)
GPGPU-Sim uArch: core: 13, cta: 1 initialized @(2,0)
GPGPU-Sim uArch: core: 14, cta: 1 initialized @(2,0)
GPGPU-Sim uArch: core:  0, cta: 1 initialized @(2,0)
GPGPU-Sim uArch: core:  1, cta: 2 initialized @(3,0)
GPGPU-Sim uArch: core:  2, cta: 2 initialized @(3,0)
GPGPU-Sim uArch: core:  3, cta: 2 initialized @(3,0)
GPGPU-Sim uArch: core:  4, cta: 2 initialized @(3,0)
GPGPU-Sim uArch: core:  5, cta: 2 initialized @(3,0)
GPGPU-Sim uArch: core:  6, cta: 2 initialized @(3,0)
GPGPU-Sim uArch: core:  7, cta: 2 initialized @(3,0)
GPGPU-Sim uArch: core:  8, cta: 2 initialized @(3,0)
GPGPU-Sim uArch: core:  9, cta: 2 initialized @(3,0)
GPGPU-Sim uArch: core: 10, cta: 2 initialized @(3,0)
GPGPU-Sim uArch: core: 11, cta: 2 initialized @(3,0)
GPGPU-Sim uArch: core: 12, cta: 2 initialized @(3,0)
GPGPU-Sim uArch: core: 13, cta: 2 initialized @(3,0)
GPGPU-Sim uArch: core: 14, cta: 2 initialized @(3,0)
GPGPU-Sim uArch: core:  0, cta: 2 initialized @(3,0)
GPGPU-Sim uArch: core:  1, cta: 3 initialized @(4,0)
GPGPU-Sim uArch: core:  2, cta: 3 initialized @(4,0)
GPGPU-Sim uArch: core:  3, cta: 3 initialized @(4,0)
GPGPU-Sim uArch: core:  4, cta: 3 initialized @(4,0)
GPGPU-Sim uArch: core:  5, cta: 3 initialized @(4,0)
GPGPU-Sim uArch: core:  6, cta: 3 initialized @(4,0)
GPGPU-Sim uArch: core:  7, cta: 3 initialized @(4,0)
GPGPU-Sim uArch: core:  8, cta: 3 initialized @(4,0)
GPGPU-Sim uArch: core:  9, cta: 3 initialized @(4,0)
GPGPU-Sim uArch: core: 10, cta: 3 initialized @(4,0)
GPGPU-Sim uArch: core: 11, cta: 3 initialized @(4,0)
GPGPU-Sim uArch: core: 12, cta: 3 initialized @(4,0)
GPGPU-Sim uArch: core: 13, cta: 3 initialized @(4,0)
GPGPU-Sim uArch: core: 14, cta: 3 initialized @(4,0)
GPGPU-Sim uArch: core:  0, cta: 3 initialized @(4,0)
GPGPU-Sim uArch: core:  1, cta: 4 initialized @(5,0)
GPGPU-Sim uArch: core:  2, cta: 4 initialized @(5,0)
GPGPU-Sim uArch: core:  3, cta: 4 initialized @(5,0)
GPGPU-Sim uArch: core:  4, cta: 4 initialized @(5,0)
GPGPU-Sim uArch: core:  5, cta: 4 initialized @(5,0)
GPGPU-Sim uArch: core:  6, cta: 4 initialized @(5,0)
GPGPU-Sim uArch: core:  7, cta: 4 initialized @(5,0)
GPGPU-Sim uArch: core:  8, cta: 4 initialized @(5,0)
GPGPU-Sim uArch: core:  9, cta: 4 initialized @(5,0)
GPGPU-Sim uArch: core: 10, cta: 4 initialized @(5,0)
GPGPU-Sim uArch: core: 11, cta: 4 initialized @(5,0)
GPGPU-Sim uArch: core: 12, cta: 4 initialized @(5,0)
GPGPU-Sim uArch: core: 13, cta: 4 initialized @(5,0)
GPGPU-Sim uArch: core: 14, cta: 4 initialized @(5,0)
GPGPU-Sim uArch: core:  0, cta: 4 initialized @(5,0)
GPGPU-Sim uArch: core:  1, cta: 5 initialized @(6,0)
GPGPU-Sim uArch: core:  2, cta: 5 initialized @(6,0)
GPGPU-Sim uArch: core:  3, cta: 5 initialized @(6,0)
GPGPU-Sim uArch: core:  4, cta: 5 initialized @(6,0)
GPGPU-Sim uArch: core:  5, cta: 5 initialized @(6,0)
GPGPU-Sim uArch: core:  6, cta: 5 initialized @(6,0)
GPGPU-Sim uArch: core:  7, cta: 5 initialized @(6,0)
GPGPU-Sim uArch: core:  8, cta: 5 initialized @(6,0)
GPGPU-Sim uArch: core:  9, cta: 5 initialized @(6,0)
GPGPU-Sim uArch: core: 10, cta: 5 initialized @(6,0)
GPGPU-Sim uArch: core: 11, cta: 5 initialized @(6,0)
GPGPU-Sim uArch: core: 12, cta: 5 initialized @(6,0)
GPGPU-Sim uArch: core: 13, cta: 5 initialized @(6,0)
GPGPU-Sim uArch: core: 14, cta: 5 initialized @(6,0)
GPGPU-Sim uArch: core:  0, cta: 5 initialized @(6,0)
GPGPU-Sim uArch: core:  1, cta: 6 initialized @(7,0)
GPGPU-Sim uArch: core:  2, cta: 6 initialized @(7,0)
GPGPU-Sim uArch: core:  3, cta: 6 initialized @(7,0)
GPGPU-Sim uArch: core:  4, cta: 6 initialized @(7,0)
GPGPU-Sim uArch: core:  5, cta: 6 initialized @(7,0)
GPGPU-Sim uArch: core:  6, cta: 6 initialized @(7,0)
GPGPU-Sim uArch: core:  7, cta: 6 initialized @(7,0)
GPGPU-Sim uArch: core:  8, cta: 6 initialized @(7,0)
GPGPU-Sim uArch: core:  9, cta: 6 initialized @(7,0)
GPGPU-Sim uArch: core: 10, cta: 6 initialized @(7,0)
GPGPU-Sim uArch: core: 11, cta: 6 initialized @(7,0)
GPGPU-Sim uArch: core: 12, cta: 6 initialized @(7,0)
GPGPU-Sim uArch: core: 13, cta: 6 initialized @(7,0)
GPGPU-Sim uArch: core: 14, cta: 6 initialized @(7,0)
GPGPU-Sim uArch: core:  0, cta: 6 initialized @(7,0)
GPGPU-Sim uArch: core:  1, cta: 7 initialized @(8,0)
GPGPU-Sim uArch: core:  2, cta: 7 initialized @(8,0)
GPGPU-Sim uArch: core:  3, cta: 7 initialized @(8,0)
GPGPU-Sim uArch: core:  4, cta: 7 initialized @(8,0)
GPGPU-Sim uArch: core:  5, cta: 7 initialized @(8,0)
GPGPU-Sim uArch: core:  6, cta: 7 initialized @(8,0)
GPGPU-Sim uArch: core:  7, cta: 7 initialized @(8,0)
GPGPU-Sim uArch: core:  8, cta: 7 initialized @(8,0)
GPGPU-Sim uArch: core:  9, cta: 7 initialized @(8,0)
GPGPU-Sim uArch: core: 10, cta: 7 initialized @(8,0)
GPGPU-Sim uArch: core: 11, cta: 7 initialized @(8,0)
GPGPU-Sim uArch: core: 12, cta: 7 initialized @(8,0)
GPGPU-Sim uArch: core: 13, cta: 7 initialized @(8,0)
GPGPU-Sim uArch: core: 14, cta: 7 initialized @(8,0)
GPGPU-Sim uArch: core:  0, cta: 7 initialized @(8,0)
GPGPU-Sim PTX: 100000 instructions simulated : ctaid=(5,1,0) tid=(15,3,0)
GPGPU-Sim uArch: cycles simulated: 500  inst.: 107520 (ipc=215.0) sim_rate=107520 (inst/sec) elapsed = 0:0:00:01 / Mon Dec  2 00:40:43 2013
GPGPU-Sim PTX: 200000 instructions simulated : ctaid=(0,7,0) tid=(15,1,0)
GPGPU-Sim PTX: 300000 instructions simulated : ctaid=(5,6,0) tid=(15,5,0)
GPGPU-Sim PTX: 400000 instructions simulated : ctaid=(5,6,0) tid=(15,5,0)
GPGPU-Sim PTX: 500000 instructions simulated : ctaid=(3,4,0) tid=(15,1,0)
GPGPU-Sim PTX: 600000 instructions simulated : ctaid=(4,2,0) tid=(15,5,0)
GPGPU-Sim PTX: 700000 instructions simulated : ctaid=(3,3,0) tid=(15,3,0)
GPGPU-Sim uArch: cycles simulated: 2000  inst.: 717728 (ipc=358.9) sim_rate=358864 (inst/sec) elapsed = 0:0:00:02 / Mon Dec  2 00:40:45 2013
GPGPU-Sim PTX: 800000 instructions simulated : ctaid=(6,0,0) tid=(15,5,0)
GPGPU-Sim PTX: 900000 instructions simulated : ctaid=(6,2,0) tid=(15,5,0)
GPGPU-Sim PTX: 1000000 instructions simulated : ctaid=(5,6,0) tid=(15,5,0)
GPGPU-Sim uArch: cycles simulated: 2500  inst.: 989984 (ipc=396.0) sim_rate=329994 (inst/sec) elapsed = 0:0:00:03 / Mon Dec  2 00:40:46 2013
GPGPU-Sim PTX: 1100000 instructions simulated : ctaid=(7,5,0) tid=(15,1,0)
GPGPU-Sim PTX: 1200000 instructions simulated : ctaid=(6,1,0) tid=(15,1,0)
GPGPU-Sim PTX: 1300000 instructions simulated : ctaid=(3,7,0) tid=(15,1,0)
GPGPU-Sim PTX: 1400000 instructions simulated : ctaid=(6,7,0) tid=(15,1,0)
GPGPU-Sim PTX: 1500000 instructions simulated : ctaid=(1,3,0) tid=(15,3,0)
GPGPU-Sim uArch: cycles simulated: 3500  inst.: 1519584 (ipc=434.2) sim_rate=379896 (inst/sec) elapsed = 0:0:00:04 / Mon Dec  2 00:40:47 2013
GPGPU-Sim PTX: 1600000 instructions simulated : ctaid=(0,0,0) tid=(15,5,0)
GPGPU-Sim PTX: 1700000 instructions simulated : ctaid=(0,5,0) tid=(15,5,0)
GPGPU-Sim PTX: 1800000 instructions simulated : ctaid=(0,3,0) tid=(15,1,0)
GPGPU-Sim uArch: cycles simulated: 4000  inst.: 1779360 (ipc=444.8) sim_rate=355872 (inst/sec) elapsed = 0:0:00:05 / Mon Dec  2 00:40:48 2013
GPGPU-Sim PTX: 1900000 instructions simulated : ctaid=(4,2,0) tid=(15,5,0)
GPGPU-Sim PTX: 2000000 instructions simulated : ctaid=(2,6,0) tid=(15,5,0)
GPGPU-Sim PTX: 2100000 instructions simulated : ctaid=(2,8,0) tid=(15,3,0)
GPGPU-Sim PTX: 2200000 instructions simulated : ctaid=(0,2,0) tid=(15,1,0)
GPGPU-Sim PTX: 2300000 instructions simulated : ctaid=(4,2,0) tid=(15,1,0)
GPGPU-Sim uArch: cycles simulated: 5000  inst.: 2327264 (ipc=465.5) sim_rate=387877 (inst/sec) elapsed = 0:0:00:06 / Mon Dec  2 00:40:49 2013
GPGPU-Sim PTX: 2400000 instructions simulated : ctaid=(2,2,0) tid=(15,5,0)
GPGPU-Sim PTX: 2500000 instructions simulated : ctaid=(7,7,0) tid=(15,5,0)
GPGPU-Sim PTX: 2600000 instructions simulated : ctaid=(3,14,0) tid=(15,1,0)
GPGPU-Sim uArch: cycles simulated: 5500  inst.: 2602656 (ipc=473.2) sim_rate=371808 (inst/sec) elapsed = 0:0:00:07 / Mon Dec  2 00:40:50 2013
GPGPU-Sim PTX: 2700000 instructions simulated : ctaid=(0,4,0) tid=(15,5,0)
GPGPU-Sim PTX: 2800000 instructions simulated : ctaid=(0,7,0) tid=(15,1,0)
GPGPU-Sim uArch: cycles simulated: 6000  inst.: 2866048 (ipc=477.7) sim_rate=358256 (inst/sec) elapsed = 0:0:00:08 / Mon Dec  2 00:40:51 2013
GPGPU-Sim PTX: 2900000 instructions simulated : ctaid=(2,1,0) tid=(15,5,0)
GPGPU-Sim PTX: 3000000 instructions simulated : ctaid=(6,13,0) tid=(15,1,0)
GPGPU-Sim PTX: 3100000 instructions simulated : ctaid=(2,6,0) tid=(15,5,0)
GPGPU-Sim PTX: 3200000 instructions simulated : ctaid=(5,0,0) tid=(15,5,0)
GPGPU-Sim PTX: 3300000 instructions simulated : ctaid=(1,3,0) tid=(15,3,0)
GPGPU-Sim PTX: 3400000 instructions simulated : ctaid=(5,2,0) tid=(15,7,0)
GPGPU-Sim uArch: cycles simulated: 7000  inst.: 3421536 (ipc=488.8) sim_rate=380170 (inst/sec) elapsed = 0:0:00:09 / Mon Dec  2 00:40:52 2013
GPGPU-Sim PTX: 3500000 instructions simulated : ctaid=(4,0,0) tid=(15,5,0)
GPGPU-Sim PTX: 3600000 instructions simulated : ctaid=(3,8,0) tid=(15,7,0)
GPGPU-Sim PTX: 3700000 instructions simulated : ctaid=(3,1,0) tid=(15,7,0)
GPGPU-Sim uArch: cycles simulated: 7500  inst.: 3675744 (ipc=490.1) sim_rate=367574 (inst/sec) elapsed = 0:0:00:10 / Mon Dec  2 00:40:53 2013
GPGPU-Sim PTX: 3800000 instructions simulated : ctaid=(7,10,0) tid=(15,5,0)
GPGPU-Sim PTX: 3900000 instructions simulated : ctaid=(6,4,0) tid=(15,3,0)
GPGPU-Sim uArch: cycles simulated: 8000  inst.: 3941696 (ipc=492.7) sim_rate=358336 (inst/sec) elapsed = 0:0:00:11 / Mon Dec  2 00:40:54 2013
GPGPU-Sim PTX: 4000000 instructions simulated : ctaid=(0,8,0) tid=(15,5,0)
GPGPU-Sim PTX: 4100000 instructions simulated : ctaid=(3,1,0) tid=(15,1,0)
GPGPU-Sim PTX: 4200000 instructions simulated : ctaid=(4,5,0) tid=(15,5,0)
GPGPU-Sim PTX: 4300000 instructions simulated : ctaid=(4,10,0) tid=(15,3,0)
GPGPU-Sim PTX: 4400000 instructions simulated : ctaid=(2,6,0) tid=(15,1,0)
GPGPU-Sim PTX: 4500000 instructions simulated : ctaid=(6,5,0) tid=(15,3,0)
GPGPU-Sim uArch: cycles simulated: 9000  inst.: 4487584 (ipc=498.6) sim_rate=373965 (inst/sec) elapsed = 0:0:00:12 / Mon Dec  2 00:40:55 2013
GPGPU-Sim PTX: 4600000 instructions simulated : ctaid=(7,6,0) tid=(15,1,0)
GPGPU-Sim PTX: 4700000 instructions simulated : ctaid=(2,3,0) tid=(15,3,0)
GPGPU-Sim uArch: cycles simulated: 9500  inst.: 4735680 (ipc=498.5) sim_rate=364283 (inst/sec) elapsed = 0:0:00:13 / Mon Dec  2 00:40:56 2013
GPGPU-Sim PTX: 4800000 instructions simulated : ctaid=(0,10,0) tid=(15,7,0)
GPGPU-Sim PTX: 4900000 instructions simulated : ctaid=(1,3,0) tid=(15,5,0)
GPGPU-Sim PTX: 5000000 instructions simulated : ctaid=(2,3,0) tid=(15,7,0)
GPGPU-Sim PTX: 5100000 instructions simulated : ctaid=(6,2,0) tid=(15,1,0)
GPGPU-Sim PTX: 5200000 instructions simulated : ctaid=(5,7,0) tid=(15,7,0)
GPGPU-Sim PTX: 5300000 instructions simulated : ctaid=(4,0,0) tid=(15,5,0)
GPGPU-Sim uArch: cycles simulated: 10500  inst.: 5301920 (ipc=504.9) sim_rate=378708 (inst/sec) elapsed = 0:0:00:14 / Mon Dec  2 00:40:57 2013
GPGPU-Sim PTX: 5400000 instructions simulated : ctaid=(0,2,0) tid=(15,1,0)
GPGPU-Sim PTX: 5500000 instructions simulated : ctaid=(6,7,0) tid=(15,3,0)
GPGPU-Sim uArch: cycles simulated: 11000  inst.: 5572864 (ipc=506.6) sim_rate=371524 (inst/sec) elapsed = 0:0:00:15 / Mon Dec  2 00:40:58 2013
GPGPU-Sim PTX: 5600000 instructions simulated : ctaid=(5,9,0) tid=(15,1,0)
GPGPU-Sim PTX: 5700000 instructions simulated : ctaid=(2,7,0) tid=(15,1,0)
GPGPU-Sim PTX: 5800000 instructions simulated : ctaid=(4,8,0) tid=(15,5,0)
GPGPU-Sim uArch: cycles simulated: 11500  inst.: 5837184 (ipc=507.6) sim_rate=364824 (inst/sec) elapsed = 0:0:00:16 / Mon Dec  2 00:40:59 2013
GPGPU-Sim PTX: 5900000 instructions simulated : ctaid=(7,8,0) tid=(15,1,0)
GPGPU-Sim PTX: 6000000 instructions simulated : ctaid=(7,3,0) tid=(15,5,0)
GPGPU-Sim PTX: 6100000 instructions simulated : ctaid=(7,0,0) tid=(15,3,0)
GPGPU-Sim PTX: 6200000 instructions simulated : ctaid=(5,6,0) tid=(15,3,0)
GPGPU-Sim PTX: 6300000 instructions simulated : ctaid=(3,3,0) tid=(15,1,0)
GPGPU-Sim uArch: cycles simulated: 12500  inst.: 6373440 (ipc=509.9) sim_rate=374908 (inst/sec) elapsed = 0:0:00:17 / Mon Dec  2 00:41:00 2013
GPGPU-Sim PTX: 6400000 instructions simulated : ctaid=(0,5,0) tid=(15,1,0)
GPGPU-Sim PTX: 6500000 instructions simulated : ctaid=(6,10,0) tid=(15,3,0)
GPGPU-Sim PTX: 6600000 instructions simulated : ctaid=(4,12,0) tid=(15,1,0)
GPGPU-Sim uArch: cycles simulated: 13000  inst.: 6652416 (ipc=511.7) sim_rate=369578 (inst/sec) elapsed = 0:0:00:18 / Mon Dec  2 00:41:01 2013
GPGPU-Sim PTX: 6700000 instructions simulated : ctaid=(3,13,0) tid=(15,1,0)
GPGPU-Sim PTX: 6800000 instructions simulated : ctaid=(7,0,0) tid=(15,1,0)
GPGPU-Sim PTX: 6900000 instructions simulated : ctaid=(6,2,0) tid=(15,5,0)
GPGPU-Sim PTX: 7000000 instructions simulated : ctaid=(7,10,0) tid=(15,1,0)
GPGPU-Sim PTX: 7100000 instructions simulated : ctaid=(1,2,0) tid=(15,1,0)
GPGPU-Sim PTX: 7200000 instructions simulated : ctaid=(3,6,0) tid=(15,3,0)
GPGPU-Sim uArch: cycles simulated: 14000  inst.: 7191552 (ipc=513.7) sim_rate=378502 (inst/sec) elapsed = 0:0:00:19 / Mon Dec  2 00:41:02 2013
GPGPU-Sim PTX: 7300000 instructions simulated : ctaid=(0,5,0) tid=(15,1,0)
GPGPU-Sim PTX: 7400000 instructions simulated : ctaid=(5,6,0) tid=(15,1,0)
GPGPU-Sim uArch: cycles simulated: 14500  inst.: 7461984 (ipc=514.6) sim_rate=373099 (inst/sec) elapsed = 0:0:00:20 / Mon Dec  2 00:41:03 2013
GPGPU-Sim PTX: 7500000 instructions simulated : ctaid=(5,9,0) tid=(15,5,0)
GPGPU-Sim PTX: 7600000 instructions simulated : ctaid=(5,6,0) tid=(15,3,0)
GPGPU-Sim PTX: 7700000 instructions simulated : ctaid=(2,8,0) tid=(15,7,0)
GPGPU-Sim uArch: cycles simulated: 15000  inst.: 7735104 (ipc=515.7) sim_rate=368338 (inst/sec) elapsed = 0:0:00:21 / Mon Dec  2 00:41:04 2013
GPGPU-Sim PTX: 7800000 instructions simulated : ctaid=(5,11,0) tid=(15,3,0)
GPGPU-Sim PTX: 7900000 instructions simulated : ctaid=(0,6,0) tid=(15,1,0)
GPGPU-Sim PTX: 8000000 instructions simulated : ctaid=(4,6,0) tid=(15,5,0)
GPGPU-Sim PTX: 8100000 instructions simulated : ctaid=(4,1,0) tid=(15,3,0)
GPGPU-Sim PTX: 8200000 instructions simulated : ctaid=(4,5,0) tid=(15,3,0)
GPGPU-Sim uArch: cycles simulated: 16000  inst.: 8269408 (ipc=516.8) sim_rate=375882 (inst/sec) elapsed = 0:0:00:22 / Mon Dec  2 00:41:05 2013
GPGPU-Sim PTX: 8300000 instructions simulated : ctaid=(2,1,0) tid=(15,1,0)
GPGPU-Sim PTX: 8400000 instructions simulated : ctaid=(0,4,0) tid=(15,5,0)
GPGPU-Sim PTX: 8500000 instructions simulated : ctaid=(6,10,0) tid=(15,3,0)
GPGPU-Sim uArch: cycles simulated: 16500  inst.: 8535872 (ipc=517.3) sim_rate=371124 (inst/sec) elapsed = 0:0:00:23 / Mon Dec  2 00:41:06 2013
GPGPU-Sim PTX: 8600000 instructions simulated : ctaid=(6,2,0) tid=(15,1,0)
GPGPU-Sim PTX: 8700000 instructions simulated : ctaid=(0,3,0) tid=(15,7,0)
GPGPU-Sim PTX: 8800000 instructions simulated : ctaid=(7,0,0) tid=(15,3,0)
GPGPU-Sim PTX: 8900000 instructions simulated : ctaid=(7,2,0) tid=(15,1,0)
GPGPU-Sim PTX: 9000000 instructions simulated : ctaid=(4,7,0) tid=(15,3,0)
GPGPU-Sim uArch: cycles simulated: 17500  inst.: 9058400 (ipc=517.6) sim_rate=377433 (inst/sec) elapsed = 0:0:00:24 / Mon Dec  2 00:41:07 2013
GPGPU-Sim PTX: 9100000 instructions simulated : ctaid=(3,12,0) tid=(15,1,0)
GPGPU-Sim PTX: 9200000 instructions simulated : ctaid=(0,5,0) tid=(15,7,0)
GPGPU-Sim PTX: 9300000 instructions simulated : ctaid=(4,1,0) tid=(15,1,0)
GPGPU-Sim uArch: cycles simulated: 18000  inst.: 9351200 (ipc=519.5) sim_rate=374048 (inst/sec) elapsed = 0:0:00:25 / Mon Dec  2 00:41:08 2013
GPGPU-Sim PTX: 9400000 instructions simulated : ctaid=(5,11,0) tid=(15,1,0)
GPGPU-Sim PTX: 9500000 instructions simulated : ctaid=(0,4,0) tid=(15,1,0)
GPGPU-Sim PTX: 9600000 instructions simulated : ctaid=(6,1,0) tid=(15,7,0)
GPGPU-Sim uArch: cycles simulated: 18500  inst.: 9616224 (ipc=519.8) sim_rate=369854 (inst/sec) elapsed = 0:0:00:26 / Mon Dec  2 00:41:09 2013
GPGPU-Sim PTX: 9700000 instructions simulated : ctaid=(1,6,0) tid=(15,1,0)
GPGPU-Sim PTX: 9800000 instructions simulated : ctaid=(7,10,0) tid=(15,1,0)
GPGPU-Sim PTX: 9900000 instructions simulated : ctaid=(6,1,0) tid=(15,7,0)
GPGPU-Sim PTX: 10000000 instructions simulated : ctaid=(4,8,0) tid=(15,5,0)
GPGPU-Sim PTX: 10100000 instructions simulated : ctaid=(1,0,0) tid=(15,1,0)
GPGPU-Sim uArch: cycles simulated: 19500  inst.: 10153056 (ipc=520.7) sim_rate=376039 (inst/sec) elapsed = 0:0:00:27 / Mon Dec  2 00:41:10 2013
GPGPU-Sim PTX: 10200000 instructions simulated : ctaid=(4,2,0) tid=(15,5,0)
GPGPU-Sim PTX: 10300000 instructions simulated : ctaid=(0,0,0) tid=(15,7,0)
GPGPU-Sim PTX: 10400000 instructions simulated : ctaid=(7,3,0) tid=(15,3,0)
GPGPU-Sim uArch: cycles simulated: 20000  inst.: 10428640 (ipc=521.4) sim_rate=372451 (inst/sec) elapsed = 0:0:00:28 / Mon Dec  2 00:41:11 2013
GPGPU-Sim PTX: 10500000 instructions simulated : ctaid=(7,0,0) tid=(15,1,0)
GPGPU-Sim PTX: 10600000 instructions simulated : ctaid=(7,9,0) tid=(15,1,0)
GPGPU-Sim PTX: 10700000 instructions simulated : ctaid=(7,6,0) tid=(15,7,0)
GPGPU-Sim uArch: cycles simulated: 20500  inst.: 10707168 (ipc=522.3) sim_rate=369212 (inst/sec) elapsed = 0:0:00:29 / Mon Dec  2 00:41:12 2013
GPGPU-Sim PTX: 10800000 instructions simulated : ctaid=(0,4,0) tid=(15,5,0)
GPGPU-Sim PTX: 10900000 instructions simulated : ctaid=(0,9,0) tid=(15,3,0)
GPGPU-Sim PTX: 11000000 instructions simulated : ctaid=(7,0,0) tid=(15,7,0)
GPGPU-Sim PTX: 11100000 instructions simulated : ctaid=(7,0,0) tid=(15,1,0)
GPGPU-Sim PTX: 11200000 instructions simulated : ctaid=(1,3,0) tid=(15,1,0)
GPGPU-Sim uArch: cycles simulated: 21500  inst.: 11232800 (ipc=522.5) sim_rate=374426 (inst/sec) elapsed = 0:0:00:30 / Mon Dec  2 00:41:13 2013
GPGPU-Sim PTX: 11300000 instructions simulated : ctaid=(7,8,0) tid=(15,1,0)
GPGPU-Sim PTX: 11400000 instructions simulated : ctaid=(6,0,0) tid=(15,7,0)
GPGPU-Sim PTX: 11500000 instructions simulated : ctaid=(0,0,0) tid=(15,3,0)
GPGPU-Sim uArch: cycles simulated: 22000  inst.: 11506208 (ipc=523.0) sim_rate=371168 (inst/sec) elapsed = 0:0:00:31 / Mon Dec  2 00:41:14 2013
GPGPU-Sim PTX: 11600000 instructions simulated : ctaid=(7,10,0) tid=(15,1,0)
GPGPU-Sim PTX: 11700000 instructions simulated : ctaid=(3,6,0) tid=(15,5,0)
GPGPU-Sim PTX: 11800000 instructions simulated : ctaid=(1,2,0) tid=(15,1,0)
GPGPU-Sim PTX: 11900000 instructions simulated : ctaid=(7,7,0) tid=(15,1,0)
GPGPU-Sim PTX: 12000000 instructions simulated : ctaid=(2,12,0) tid=(15,1,0)
GPGPU-Sim uArch: cycles simulated: 23000  inst.: 12028160 (ipc=523.0) sim_rate=375880 (inst/sec) elapsed = 0:0:00:32 / Mon Dec  2 00:41:15 2013
GPGPU-Sim PTX: 12100000 instructions simulated : ctaid=(0,1,0) tid=(15,5,0)
GPGPU-Sim PTX: 12200000 instructions simulated : ctaid=(4,12,0) tid=(15,3,0)
GPGPU-Sim PTX: 12300000 instructions simulated : ctaid=(3,7,0) tid=(15,1,0)
GPGPU-Sim uArch: cycles simulated: 23500  inst.: 12325984 (ipc=524.5) sim_rate=373514 (inst/sec) elapsed = 0:0:00:33 / Mon Dec  2 00:41:16 2013
GPGPU-Sim PTX: 12400000 instructions simulated : ctaid=(7,12,0) tid=(15,1,0)
GPGPU-Sim PTX: 12500000 instructions simulated : ctaid=(6,7,0) tid=(15,3,0)
GPGPU-Sim PTX: 12600000 instructions simulated : ctaid=(7,3,0) tid=(15,1,0)
GPGPU-Sim uArch: cycles simulated: 24000  inst.: 12588768 (ipc=524.5) sim_rate=370257 (inst/sec) elapsed = 0:0:00:34 / Mon Dec  2 00:41:17 2013
GPGPU-Sim PTX: 12700000 instructions simulated : ctaid=(0,8,0) tid=(15,1,0)
GPGPU-Sim PTX: 12800000 instructions simulated : ctaid=(6,5,0) tid=(15,5,0)
GPGPU-Sim PTX: 12900000 instructions simulated : ctaid=(2,2,0) tid=(15,1,0)
GPGPU-Sim PTX: 13000000 instructions simulated : ctaid=(2,5,0) tid=(15,5,0)
GPGPU-Sim PTX: 13100000 instructions simulated : ctaid=(6,1,0) tid=(15,5,0)
GPGPU-Sim uArch: cycles simulated: 25000  inst.: 13121184 (ipc=524.8) sim_rate=374890 (inst/sec) elapsed = 0:0:00:35 / Mon Dec  2 00:41:18 2013
GPGPU-Sim PTX: 13200000 instructions simulated : ctaid=(1,10,0) tid=(15,5,0)
GPGPU-Sim PTX: 13300000 instructions simulated : ctaid=(1,2,0) tid=(15,5,0)
GPGPU-Sim PTX: 13400000 instructions simulated : ctaid=(0,4,0) tid=(15,5,0)
GPGPU-Sim uArch: cycles simulated: 25500  inst.: 13394688 (ipc=525.3) sim_rate=372074 (inst/sec) elapsed = 0:0:00:36 / Mon Dec  2 00:41:19 2013
GPGPU-Sim PTX: 13500000 instructions simulated : ctaid=(2,11,0) tid=(15,1,0)
GPGPU-Sim PTX: 13600000 instructions simulated : ctaid=(7,12,0) tid=(15,3,0)
GPGPU-Sim PTX: 13700000 instructions simulated : ctaid=(5,11,0) tid=(15,1,0)
GPGPU-Sim PTX: 13800000 instructions simulated : ctaid=(4,1,0) tid=(15,7,0)
GPGPU-Sim PTX: 13900000 instructions simulated : ctaid=(0,6,0) tid=(15,1,0)
GPGPU-Sim uArch: cycles simulated: 26500  inst.: 13940992 (ipc=526.1) sim_rate=376783 (inst/sec) elapsed = 0:0:00:37 / Mon Dec  2 00:41:20 2013
GPGPU-Sim PTX: 14000000 instructions simulated : ctaid=(0,10,0) tid=(15,3,0)
GPGPU-Sim PTX: 14100000 instructions simulated : ctaid=(7,11,0) tid=(15,1,0)
GPGPU-Sim PTX: 14200000 instructions simulated : ctaid=(3,6,0) tid=(15,5,0)
GPGPU-Sim uArch: cycles simulated: 27000  inst.: 14194976 (ipc=525.7) sim_rate=373552 (inst/sec) elapsed = 0:0:00:38 / Mon Dec  2 00:41:21 2013
GPGPU-Sim PTX: 14300000 instructions simulated : ctaid=(6,12,0) tid=(15,1,0)
GPGPU-Sim PTX: 14400000 instructions simulated : ctaid=(0,7,0) tid=(15,3,0)
GPGPU-Sim PTX: 14500000 instructions simulated : ctaid=(6,5,0) tid=(15,3,0)
GPGPU-Sim uArch: cycles simulated: 27500  inst.: 14480960 (ipc=526.6) sim_rate=371306 (inst/sec) elapsed = 0:0:00:39 / Mon Dec  2 00:41:22 2013
GPGPU-Sim PTX: 14600000 instructions simulated : ctaid=(3,6,0) tid=(15,5,0)
GPGPU-Sim PTX: 14700000 instructions simulated : ctaid=(5,5,0) tid=(15,1,0)
GPGPU-Sim PTX: 14800000 instructions simulated : ctaid=(7,5,0) tid=(15,5,0)
GPGPU-Sim PTX: 14900000 instructions simulated : ctaid=(5,1,0) tid=(15,7,0)
GPGPU-Sim PTX: 15000000 instructions simulated : ctaid=(0,6,0) tid=(15,3,0)
GPGPU-Sim uArch: cycles simulated: 28500  inst.: 15015712 (ipc=526.9) sim_rate=375392 (inst/sec) elapsed = 0:0:00:40 / Mon Dec  2 00:41:23 2013
GPGPU-Sim PTX: 15100000 instructions simulated : ctaid=(1,6,0) tid=(15,5,0)
GPGPU-Sim PTX: 15200000 instructions simulated : ctaid=(7,4,0) tid=(15,5,0)
GPGPU-Sim PTX: 15300000 instructions simulated : ctaid=(0,6,0) tid=(15,1,0)
GPGPU-Sim uArch: cycles simulated: 29000  inst.: 15289056 (ipc=527.2) sim_rate=372903 (inst/sec) elapsed = 0:0:00:41 / Mon Dec  2 00:41:24 2013
GPGPU-Sim PTX: 15400000 instructions simulated : ctaid=(0,0,0) tid=(15,7,0)
GPGPU-Sim PTX: 15500000 instructions simulated : ctaid=(3,0,0) tid=(15,1,0)
GPGPU-Sim PTX: 15600000 instructions simulated : ctaid=(7,5,0) tid=(15,3,0)
GPGPU-Sim PTX: 15700000 instructions simulated : ctaid=(3,1,0) tid=(15,3,0)
GPGPU-Sim PTX: 15800000 instructions simulated : ctaid=(1,11,0) tid=(15,3,0)
GPGPU-Sim uArch: cycles simulated: 30000  inst.: 15829216 (ipc=527.6) sim_rate=376886 (inst/sec) elapsed = 0:0:00:42 / Mon Dec  2 00:41:25 2013
GPGPU-Sim PTX: 15900000 instructions simulated : ctaid=(0,3,0) tid=(15,5,0)
GPGPU-Sim PTX: 16000000 instructions simulated : ctaid=(0,8,0) tid=(15,7,0)
GPGPU-Sim PTX: 16100000 instructions simulated : ctaid=(0,7,0) tid=(15,5,0)
GPGPU-Sim uArch: cycles simulated: 30500  inst.: 16096352 (ipc=527.7) sim_rate=374333 (inst/sec) elapsed = 0:0:00:43 / Mon Dec  2 00:41:26 2013
GPGPU-Sim PTX: 16200000 instructions simulated : ctaid=(5,1,0) tid=(15,5,0)
GPGPU-Sim PTX: 16300000 instructions simulated : ctaid=(3,1,0) tid=(15,1,0)
GPGPU-Sim uArch: cycles simulated: 31000  inst.: 16354016 (ipc=527.5) sim_rate=371682 (inst/sec) elapsed = 0:0:00:44 / Mon Dec  2 00:41:27 2013
GPGPU-Sim PTX: 16400000 instructions simulated : ctaid=(2,4,0) tid=(15,5,0)
GPGPU-Sim PTX: 16500000 instructions simulated : ctaid=(4,4,0) tid=(15,1,0)
GPGPU-Sim PTX: 16600000 instructions simulated : ctaid=(6,0,0) tid=(15,5,0)
GPGPU-Sim PTX: 16700000 instructions simulated : ctaid=(3,13,0) tid=(15,1,0)
GPGPU-Sim PTX: 16800000 instructions simulated : ctaid=(1,2,0) tid=(15,1,0)
GPGPU-Sim PTX: 16900000 instructions simulated : ctaid=(4,2,0) tid=(15,3,0)
GPGPU-Sim uArch: cycles simulated: 32000  inst.: 16904704 (ipc=528.3) sim_rate=375660 (inst/sec) elapsed = 0:0:00:45 / Mon Dec  2 00:41:28 2013
GPGPU-Sim PTX: 17000000 instructions simulated : ctaid=(0,6,0) tid=(15,5,0)
GPGPU-Sim PTX: 17100000 instructions simulated : ctaid=(5,3,0) tid=(15,5,0)
GPGPU-Sim PTX: 17200000 instructions simulated : ctaid=(3,5,0) tid=(15,7,0)
GPGPU-Sim uArch: cycles simulated: 32500  inst.: 17183520 (ipc=528.7) sim_rate=373554 (inst/sec) elapsed = 0:0:00:46 / Mon Dec  2 00:41:29 2013
GPGPU-Sim PTX: 17300000 instructions simulated : ctaid=(3,13,0) tid=(15,1,0)
GPGPU-Sim PTX: 17400000 instructions simulated : ctaid=(7,12,0) tid=(15,1,0)
GPGPU-Sim PTX: 17500000 instructions simulated : ctaid=(6,2,0) tid=(15,5,0)
GPGPU-Sim PTX: 17600000 instructions simulated : ctaid=(7,6,0) tid=(15,1,0)
GPGPU-Sim PTX: 17700000 instructions simulated : ctaid=(0,4,0) tid=(15,3,0)
GPGPU-Sim uArch: cycles simulated: 33500  inst.: 17719680 (ipc=528.9) sim_rate=377014 (inst/sec) elapsed = 0:0:00:47 / Mon Dec  2 00:41:30 2013
GPGPU-Sim PTX: 17800000 instructions simulated : ctaid=(7,2,0) tid=(15,1,0)
GPGPU-Sim PTX: 17900000 instructions simulated : ctaid=(1,5,0) tid=(15,7,0)
GPGPU-Sim PTX: 18000000 instructions simulated : ctaid=(2,10,0) tid=(15,5,0)
GPGPU-Sim uArch: cycles simulated: 34000  inst.: 18000736 (ipc=529.4) sim_rate=375015 (inst/sec) elapsed = 0:0:00:48 / Mon Dec  2 00:41:31 2013
GPGPU-Sim PTX: 18100000 instructions simulated : ctaid=(0,1,0) tid=(15,5,0)
GPGPU-Sim PTX: 18200000 instructions simulated : ctaid=(0,2,0) tid=(15,1,0)
GPGPU-Sim uArch: cycles simulated: 34500  inst.: 18252480 (ipc=529.1) sim_rate=372499 (inst/sec) elapsed = 0:0:00:49 / Mon Dec  2 00:41:32 2013
GPGPU-Sim PTX: 18300000 instructions simulated : ctaid=(2,6,0) tid=(15,3,0)
GPGPU-Sim PTX: 18400000 instructions simulated : ctaid=(6,9,0) tid=(15,5,0)
GPGPU-Sim PTX: 18500000 instructions simulated : ctaid=(4,1,0) tid=(15,3,0)
GPGPU-Sim PTX: 18600000 instructions simulated : ctaid=(0,5,0) tid=(15,7,0)
GPGPU-Sim PTX: 18700000 instructions simulated : ctaid=(0,4,0) tid=(15,7,0)
GPGPU-Sim PTX: 18800000 instructions simulated : ctaid=(4,4,0) tid=(15,1,0)
GPGPU-Sim uArch: cycles simulated: 35500  inst.: 18797440 (ipc=529.5) sim_rate=375948 (inst/sec) elapsed = 0:0:00:50 / Mon Dec  2 00:41:33 2013
GPGPU-Sim PTX: 18900000 instructions simulated : ctaid=(2,3,0) tid=(15,5,0)
GPGPU-Sim PTX: 19000000 instructions simulated : ctaid=(6,0,0) tid=(15,3,0)
GPGPU-Sim uArch: cycles simulated: 36000  inst.: 19068608 (ipc=529.7) sim_rate=373894 (inst/sec) elapsed = 0:0:00:51 / Mon Dec  2 00:41:34 2013
GPGPU-Sim PTX: 19100000 instructions simulated : ctaid=(4,3,0) tid=(15,7,0)
GPGPU-Sim PTX: 19200000 instructions simulated : ctaid=(0,7,0) tid=(15,5,0)
GPGPU-Sim PTX: 19300000 instructions simulated : ctaid=(3,8,0) tid=(15,5,0)
GPGPU-Sim uArch: cycles simulated: 36500  inst.: 19317952 (ipc=529.3) sim_rate=371499 (inst/sec) elapsed = 0:0:00:52 / Mon Dec  2 00:41:35 2013
GPGPU-Sim PTX: 19400000 instructions simulated : ctaid=(2,5,0) tid=(15,1,0)
GPGPU-Sim PTX: 19500000 instructions simulated : ctaid=(7,6,0) tid=(15,1,0)
GPGPU-Sim PTX: 19600000 instructions simulated : ctaid=(5,10,0) tid=(15,1,0)
GPGPU-Sim PTX: 19700000 instructions simulated : ctaid=(5,1,0) tid=(15,5,0)
GPGPU-Sim PTX: 19800000 instructions simulated : ctaid=(2,9,0) tid=(15,1,0)
GPGPU-Sim PTX: 19900000 instructions simulated : ctaid=(0,6,0) tid=(15,5,0)
GPGPU-Sim uArch: cycles simulated: 37500  inst.: 19876416 (ipc=530.0) sim_rate=375026 (inst/sec) elapsed = 0:0:00:53 / Mon Dec  2 00:41:36 2013
GPGPU-Sim PTX: 20000000 instructions simulated : ctaid=(5,3,0) tid=(15,1,0)
GPGPU-Sim PTX: 20100000 instructions simulated : ctaid=(5,6,0) tid=(15,7,0)
GPGPU-Sim uArch: cycles simulated: 38000  inst.: 20158432 (ipc=530.5) sim_rate=373304 (inst/sec) elapsed = 0:0:00:54 / Mon Dec  2 00:41:37 2013
GPGPU-Sim PTX: 20200000 instructions simulated : ctaid=(3,11,0) tid=(15,5,0)
GPGPU-Sim PTX: 20300000 instructions simulated : ctaid=(4,2,0) tid=(15,7,0)
GPGPU-Sim PTX: 20400000 instructions simulated : ctaid=(1,2,0) tid=(15,5,0)
GPGPU-Sim PTX: 20500000 instructions simulated : ctaid=(0,13,0) tid=(15,5,0)
GPGPU-Sim PTX: 20600000 instructions simulated : ctaid=(2,3,0) tid=(15,3,0)
GPGPU-Sim PTX: 20700000 instructions simulated : ctaid=(7,2,0) tid=(15,7,0)
GPGPU-Sim uArch: cycles simulated: 39000  inst.: 20687744 (ipc=530.5) sim_rate=376140 (inst/sec) elapsed = 0:0:00:55 / Mon Dec  2 00:41:38 2013
GPGPU-Sim PTX: 20800000 instructions simulated : ctaid=(5,9,0) tid=(15,5,0)
GPGPU-Sim PTX: 20900000 instructions simulated : ctaid=(6,12,0) tid=(15,5,0)
GPGPU-Sim uArch: cycles simulated: 39500  inst.: 20953216 (ipc=530.5) sim_rate=374164 (inst/sec) elapsed = 0:0:00:56 / Mon Dec  2 00:41:39 2013
GPGPU-Sim PTX: 21000000 instructions simulated : ctaid=(0,0,0) tid=(15,7,0)
GPGPU-Sim PTX: 21100000 instructions simulated : ctaid=(6,8,0) tid=(15,3,0)
GPGPU-Sim PTX: 21200000 instructions simulated : ctaid=(5,3,0) tid=(15,7,0)
GPGPU-Sim uArch: cycles simulated: 40000  inst.: 21232320 (ipc=530.8) sim_rate=372496 (inst/sec) elapsed = 0:0:00:57 / Mon Dec  2 00:41:40 2013
GPGPU-Sim PTX: 21300000 instructions simulated : ctaid=(1,2,0) tid=(15,3,0)
GPGPU-Sim PTX: 21400000 instructions simulated : ctaid=(4,6,0) tid=(15,1,0)
GPGPU-Sim PTX: 21500000 instructions simulated : ctaid=(1,4,0) tid=(15,5,0)
GPGPU-Sim PTX: 21600000 instructions simulated : ctaid=(0,10,0) tid=(15,3,0)
GPGPU-Sim PTX: 21700000 instructions simulated : ctaid=(2,10,0) tid=(15,1,0)
GPGPU-Sim PTX: 21800000 instructions simulated : ctaid=(3,2,0) tid=(15,5,0)
GPGPU-Sim uArch: cycles simulated: 41000  inst.: 21775168 (ipc=531.1) sim_rate=375433 (inst/sec) elapsed = 0:0:00:58 / Mon Dec  2 00:41:41 2013
GPGPU-Sim PTX: 21900000 instructions simulated : ctaid=(5,4,0) tid=(15,1,0)
GPGPU-Sim PTX: 22000000 instructions simulated : ctaid=(0,2,0) tid=(15,1,0)
GPGPU-Sim uArch: cycles simulated: 41500  inst.: 22038208 (ipc=531.0) sim_rate=373528 (inst/sec) elapsed = 0:0:00:59 / Mon Dec  2 00:41:42 2013
GPGPU-Sim PTX: 22100000 instructions simulated : ctaid=(4,8,0) tid=(15,7,0)
GPGPU-Sim PTX: 22200000 instructions simulated : ctaid=(0,2,0) tid=(15,7,0)
GPGPU-Sim PTX: 22300000 instructions simulated : ctaid=(5,5,0) tid=(15,7,0)
GPGPU-Sim PTX: 22400000 instructions simulated : ctaid=(3,6,0) tid=(15,1,0)
GPGPU-Sim PTX: 22500000 instructions simulated : ctaid=(6,3,0) tid=(15,3,0)
GPGPU-Sim PTX: 22600000 instructions simulated : ctaid=(6,0,0) tid=(15,1,0)
GPGPU-Sim uArch: cycles simulated: 42500  inst.: 22577216 (ipc=531.2) sim_rate=376286 (inst/sec) elapsed = 0:0:01:00 / Mon Dec  2 00:41:43 2013
GPGPU-Sim PTX: 22700000 instructions simulated : ctaid=(6,2,0) tid=(15,3,0)
GPGPU-Sim PTX: 22800000 instructions simulated : ctaid=(0,3,0) tid=(15,1,0)
GPGPU-Sim uArch: cycles simulated: 43000  inst.: 22854592 (ipc=531.5) sim_rate=374665 (inst/sec) elapsed = 0:0:01:01 / Mon Dec  2 00:41:44 2013
GPGPU-Sim PTX: 22900000 instructions simulated : ctaid=(0,1,0) tid=(15,7,0)
GPGPU-Sim PTX: 23000000 instructions simulated : ctaid=(1,6,0) tid=(15,3,0)
GPGPU-Sim PTX: 23100000 instructions simulated : ctaid=(6,8,0) tid=(15,3,0)
GPGPU-Sim uArch: cycles simulated: 43500  inst.: 23116768 (ipc=531.4) sim_rate=372851 (inst/sec) elapsed = 0:0:01:02 / Mon Dec  2 00:41:45 2013
GPGPU-Sim PTX: 23200000 instructions simulated : ctaid=(3,5,0) tid=(15,5,0)
GPGPU-Sim PTX: 23300000 instructions simulated : ctaid=(4,2,0) tid=(15,1,0)
GPGPU-Sim PTX: 23400000 instructions simulated : ctaid=(5,13,0) tid=(15,1,0)
GPGPU-Sim PTX: 23500000 instructions simulated : ctaid=(5,6,0) tid=(15,1,0)
GPGPU-Sim PTX: 23600000 instructions simulated : ctaid=(0,2,0) tid=(15,5,0)
GPGPU-Sim uArch: cycles simulated: 44500  inst.: 23641824 (ipc=531.3) sim_rate=375267 (inst/sec) elapsed = 0:0:01:03 / Mon Dec  2 00:41:46 2013
GPGPU-Sim PTX: 23700000 instructions simulated : ctaid=(7,10,0) tid=(15,1,0)
GPGPU-Sim PTX: 23800000 instructions simulated : ctaid=(0,5,0) tid=(15,1,0)
GPGPU-Sim PTX: 23900000 instructions simulated : ctaid=(2,9,0) tid=(15,1,0)
GPGPU-Sim uArch: cycles simulated: 45000  inst.: 23924032 (ipc=531.6) sim_rate=373813 (inst/sec) elapsed = 0:0:01:04 / Mon Dec  2 00:41:47 2013
GPGPU-Sim PTX: 24000000 instructions simulated : ctaid=(6,5,0) tid=(15,3,0)
GPGPU-Sim PTX: 24100000 instructions simulated : ctaid=(4,0,0) tid=(15,5,0)
GPGPU-Sim PTX: 24200000 instructions simulated : ctaid=(3,3,0) tid=(15,5,0)
GPGPU-Sim PTX: 24300000 instructions simulated : ctaid=(7,5,0) tid=(15,3,0)
GPGPU-Sim PTX: 24400000 instructions simulated : ctaid=(3,2,0) tid=(15,1,0)
GPGPU-Sim uArch: cycles simulated: 46000  inst.: 24461504 (ipc=531.8) sim_rate=376330 (inst/sec) elapsed = 0:0:01:05 / Mon Dec  2 00:41:48 2013
GPGPU-Sim PTX: 24500000 instructions simulated : ctaid=(5,4,0) tid=(15,3,0)
GPGPU-Sim PTX: 24600000 instructions simulated : ctaid=(7,9,0) tid=(15,1,0)
GPGPU-Sim PTX: 24700000 instructions simulated : ctaid=(1,4,0) tid=(15,7,0)
GPGPU-Sim uArch: cycles simulated: 46500  inst.: 24735776 (ipc=532.0) sim_rate=374784 (inst/sec) elapsed = 0:0:01:06 / Mon Dec  2 00:41:49 2013
GPGPU-Sim PTX: 24800000 instructions simulated : ctaid=(3,2,0) tid=(15,5,0)
GPGPU-Sim PTX: 24900000 instructions simulated : ctaid=(1,4,0) tid=(15,7,0)
GPGPU-Sim PTX: 25000000 instructions simulated : ctaid=(4,3,0) tid=(15,7,0)
GPGPU-Sim uArch: cycles simulated: 47000  inst.: 25012960 (ipc=532.2) sim_rate=373327 (inst/sec) elapsed = 0:0:01:07 / Mon Dec  2 00:41:50 2013
GPGPU-Sim PTX: 25100000 instructions simulated : ctaid=(0,2,0) tid=(15,7,0)
GPGPU-Sim PTX: 25200000 instructions simulated : ctaid=(0,8,0) tid=(15,7,0)
GPGPU-Sim PTX: 25300000 instructions simulated : ctaid=(2,1,0) tid=(15,3,0)
GPGPU-Sim PTX: 25400000 instructions simulated : ctaid=(3,6,0) tid=(15,1,0)
GPGPU-Sim PTX: 25500000 instructions simulated : ctaid=(1,10,0) tid=(15,7,0)
GPGPU-Sim uArch: cycles simulated: 48000  inst.: 25541888 (ipc=532.1) sim_rate=375616 (inst/sec) elapsed = 0:0:01:08 / Mon Dec  2 00:41:51 2013
GPGPU-Sim PTX: 25600000 instructions simulated : ctaid=(5,11,0) tid=(15,1,0)
GPGPU-Sim PTX: 25700000 instructions simulated : ctaid=(0,0,0) tid=(15,5,0)
GPGPU-Sim PTX: 25800000 instructions simulated : ctaid=(3,8,0) tid=(15,5,0)
GPGPU-Sim uArch: cycles simulated: 48500  inst.: 25818528 (ipc=532.3) sim_rate=374181 (inst/sec) elapsed = 0:0:01:09 / Mon Dec  2 00:41:52 2013
GPGPU-Sim PTX: 25900000 instructions simulated : ctaid=(5,12,0) tid=(15,1,0)
GPGPU-Sim PTX: 26000000 instructions simulated : ctaid=(4,0,0) tid=(15,7,0)
GPGPU-Sim PTX: 26100000 instructions simulated : ctaid=(6,10,0) tid=(15,1,0)
GPGPU-Sim PTX: 26200000 instructions simulated : ctaid=(1,6,0) tid=(15,7,0)
GPGPU-Sim PTX: 26300000 instructions simulated : ctaid=(1,3,0) tid=(15,3,0)
GPGPU-Sim uArch: cycles simulated: 49500  inst.: 26357216 (ipc=532.5) sim_rate=376531 (inst/sec) elapsed = 0:0:01:10 / Mon Dec  2 00:41:53 2013
GPGPU-Sim PTX: 26400000 instructions simulated : ctaid=(5,10,0) tid=(15,1,0)
GPGPU-Sim PTX: 26500000 instructions simulated : ctaid=(3,4,0) tid=(15,7,0)
GPGPU-Sim PTX: 26600000 instructions simulated : ctaid=(2,4,0) tid=(15,1,0)
GPGPU-Sim uArch: cycles simulated: 50000  inst.: 26608064 (ipc=532.2) sim_rate=374761 (inst/sec) elapsed = 0:0:01:11 / Mon Dec  2 00:41:54 2013
GPGPU-Sim PTX: 26700000 instructions simulated : ctaid=(1,0,0) tid=(15,7,0)
GPGPU-Sim PTX: 26800000 instructions simulated : ctaid=(3,11,0) tid=(15,7,0)
GPGPU-Sim PTX: 26900000 instructions simulated : ctaid=(6,4,0) tid=(15,5,0)
GPGPU-Sim uArch: cycles simulated: 50500  inst.: 26902048 (ipc=532.7) sim_rate=373639 (inst/sec) elapsed = 0:0:01:12 / Mon Dec  2 00:41:55 2013
GPGPU-Sim PTX: 27000000 instructions simulated : ctaid=(0,0,0) tid=(15,1,0)
GPGPU-Sim PTX: 27100000 instructions simulated : ctaid=(1,2,0) tid=(15,1,0)
GPGPU-Sim PTX: 27200000 instructions simulated : ctaid=(5,0,0) tid=(15,5,0)
GPGPU-Sim PTX: 27300000 instructions simulated : ctaid=(2,4,0) tid=(15,5,0)
GPGPU-Sim PTX: 27400000 instructions simulated : ctaid=(4,3,0) tid=(15,3,0)
GPGPU-Sim uArch: cycles simulated: 51500  inst.: 27448128 (ipc=533.0) sim_rate=376001 (inst/sec) elapsed = 0:0:01:13 / Mon Dec  2 00:41:56 2013
GPGPU-Sim PTX: 27500000 instructions simulated : ctaid=(6,14,0) tid=(15,1,0)
GPGPU-Sim PTX: 27600000 instructions simulated : ctaid=(4,13,0) tid=(15,1,0)
GPGPU-Sim PTX: 27700000 instructions simulated : ctaid=(2,8,0) tid=(15,5,0)
GPGPU-Sim uArch: cycles simulated: 52000  inst.: 27704512 (ipc=532.8) sim_rate=374385 (inst/sec) elapsed = 0:0:01:14 / Mon Dec  2 00:41:57 2013
GPGPU-Sim PTX: 27800000 instructions simulated : ctaid=(7,6,0) tid=(15,3,0)
GPGPU-Sim PTX: 27900000 instructions simulated : ctaid=(5,9,0) tid=(15,5,0)
GPGPU-Sim PTX: 28000000 instructions simulated : ctaid=(5,7,0) tid=(15,1,0)
GPGPU-Sim uArch: cycles simulated: 52500  inst.: 27978592 (ipc=532.9) sim_rate=373047 (inst/sec) elapsed = 0:0:01:15 / Mon Dec  2 00:41:58 2013
GPGPU-Sim PTX: 28100000 instructions simulated : ctaid=(4,6,0) tid=(15,5,0)
GPGPU-Sim PTX: 28200000 instructions simulated : ctaid=(6,9,0) tid=(15,5,0)
GPGPU-Sim PTX: 28300000 instructions simulated : ctaid=(7,14,0) tid=(15,1,0)
GPGPU-Sim PTX: 28400000 instructions simulated : ctaid=(2,7,0) tid=(15,7,0)
GPGPU-Sim PTX: 28500000 instructions simulated : ctaid=(1,6,0) tid=(15,3,0)
GPGPU-Sim uArch: cycles simulated: 53500  inst.: 28519456 (ipc=533.1) sim_rate=375256 (inst/sec) elapsed = 0:0:01:16 / Mon Dec  2 00:41:59 2013
GPGPU-Sim PTX: 28600000 instructions simulated : ctaid=(7,3,0) tid=(15,5,0)
GPGPU-Sim PTX: 28700000 instructions simulated : ctaid=(4,8,0) tid=(15,5,0)
GPGPU-Sim PTX: 28800000 instructions simulated : ctaid=(2,11,0) tid=(15,1,0)
GPGPU-Sim uArch: cycles simulated: 54000  inst.: 28776960 (ipc=532.9) sim_rate=373726 (inst/sec) elapsed = 0:0:01:17 / Mon Dec  2 00:42:00 2013
GPGPU-Sim PTX: 28900000 instructions simulated : ctaid=(5,6,0) tid=(15,1,0)
GPGPU-Sim PTX: 29000000 instructions simulated : ctaid=(6,10,0) tid=(15,1,0)
GPGPU-Sim PTX: 29100000 instructions simulated : ctaid=(6,3,0) tid=(15,3,0)
GPGPU-Sim PTX: 29200000 instructions simulated : ctaid=(1,4,0) tid=(15,1,0)
GPGPU-Sim PTX: 29300000 instructions simulated : ctaid=(2,0,0) tid=(15,3,0)
GPGPU-Sim uArch: cycles simulated: 55000  inst.: 29328288 (ipc=533.2) sim_rate=376003 (inst/sec) elapsed = 0:0:01:18 / Mon Dec  2 00:42:01 2013
GPGPU-Sim PTX: 29400000 instructions simulated : ctaid=(1,8,0) tid=(15,1,0)
GPGPU-Sim PTX: 29500000 instructions simulated : ctaid=(0,10,0) tid=(15,1,0)
GPGPU-Sim PTX: 29600000 instructions simulated : ctaid=(0,8,0) tid=(15,3,0)
GPGPU-Sim uArch: cycles simulated: 55500  inst.: 29587360 (ipc=533.1) sim_rate=374523 (inst/sec) elapsed = 0:0:01:19 / Mon Dec  2 00:42:02 2013
GPGPU-Sim PTX: 29700000 instructions simulated : ctaid=(6,2,0) tid=(15,5,0)
GPGPU-Sim PTX: 29800000 instructions simulated : ctaid=(1,6,0) tid=(15,5,0)
GPGPU-Sim uArch: cycles simulated: 56000  inst.: 29870720 (ipc=533.4) sim_rate=373384 (inst/sec) elapsed = 0:0:01:20 / Mon Dec  2 00:42:03 2013
GPGPU-Sim PTX: 29900000 instructions simulated : ctaid=(0,13,0) tid=(15,1,0)
GPGPU-Sim PTX: 30000000 instructions simulated : ctaid=(6,14,0) tid=(15,1,0)
GPGPU-Sim PTX: 30100000 instructions simulated : ctaid=(2,3,0) tid=(15,1,0)
GPGPU-Sim PTX: 30200000 instructions simulated : ctaid=(5,7,0) tid=(15,7,0)
GPGPU-Sim PTX: 30300000 instructions simulated : ctaid=(1,4,0) tid=(15,3,0)
GPGPU-Sim PTX: 30400000 instructions simulated : ctaid=(3,1,0) tid=(15,5,0)
GPGPU-Sim uArch: cycles simulated: 57000  inst.: 30412256 (ipc=533.5) sim_rate=375459 (inst/sec) elapsed = 0:0:01:21 / Mon Dec  2 00:42:04 2013
GPGPU-Sim PTX: 30500000 instructions simulated : ctaid=(6,1,0) tid=(15,5,0)
GPGPU-Sim PTX: 30600000 instructions simulated : ctaid=(6,7,0) tid=(15,1,0)
GPGPU-Sim PTX: 30700000 instructions simulated : ctaid=(4,5,0) tid=(15,1,0)
GPGPU-Sim uArch: cycles simulated: 57500  inst.: 30677472 (ipc=533.5) sim_rate=374115 (inst/sec) elapsed = 0:0:01:22 / Mon Dec  2 00:42:05 2013
GPGPU-Sim PTX: 30800000 instructions simulated : ctaid=(5,11,0) tid=(15,1,0)
GPGPU-Sim PTX: 30900000 instructions simulated : ctaid=(4,0,0) tid=(15,3,0)
GPGPU-Sim PTX: 31000000 instructions simulated : ctaid=(6,2,0) tid=(15,3,0)
GPGPU-Sim PTX: 31100000 instructions simulated : ctaid=(3,7,0) tid=(15,1,0)
GPGPU-Sim PTX: 31200000 instructions simulated : ctaid=(4,8,0) tid=(15,1,0)
GPGPU-Sim uArch: cycles simulated: 58500  inst.: 31211936 (ipc=533.5) sim_rate=376047 (inst/sec) elapsed = 0:0:01:23 / Mon Dec  2 00:42:06 2013
GPGPU-Sim PTX: 31300000 instructions simulated : ctaid=(7,11,0) tid=(15,5,0)
GPGPU-Sim PTX: 31400000 instructions simulated : ctaid=(2,5,0) tid=(15,5,0)
GPGPU-Sim PTX: 31500000 instructions simulated : ctaid=(3,10,0) tid=(15,3,0)
GPGPU-Sim uArch: cycles simulated: 59000  inst.: 31491072 (ipc=533.7) sim_rate=374893 (inst/sec) elapsed = 0:0:01:24 / Mon Dec  2 00:42:07 2013
GPGPU-Sim PTX: 31600000 instructions simulated : ctaid=(7,5,0) tid=(15,5,0)
GPGPU-Sim PTX: 31700000 instructions simulated : ctaid=(3,0,0) tid=(15,7,0)
GPGPU-Sim uArch: cycles simulated: 59500  inst.: 31743968 (ipc=533.5) sim_rate=373458 (inst/sec) elapsed = 0:0:01:25 / Mon Dec  2 00:42:08 2013
GPGPU-Sim PTX: 31800000 instructions simulated : ctaid=(4,3,0) tid=(15,3,0)
GPGPU-Sim PTX: 31900000 instructions simulated : ctaid=(6,3,0) tid=(15,5,0)
GPGPU-Sim PTX: 32000000 instructions simulated : ctaid=(3,1,0) tid=(15,3,0)
GPGPU-Sim PTX: 32100000 instructions simulated : ctaid=(5,4,0) tid=(15,1,0)
GPGPU-Sim PTX: 32200000 instructions simulated : ctaid=(0,3,0) tid=(15,3,0)
GPGPU-Sim PTX: 32300000 instructions simulated : ctaid=(2,4,0) tid=(15,5,0)
GPGPU-Sim uArch: cycles simulated: 60500  inst.: 32300288 (ipc=533.9) sim_rate=375584 (inst/sec) elapsed = 0:0:01:26 / Mon Dec  2 00:42:09 2013
GPGPU-Sim PTX: 32400000 instructions simulated : ctaid=(2,3,0) tid=(15,1,0)
GPGPU-Sim PTX: 32500000 instructions simulated : ctaid=(2,2,0) tid=(15,7,0)
GPGPU-Sim PTX: 32600000 instructions simulated : ctaid=(1,12,0) tid=(15,5,0)
GPGPU-Sim uArch: cycles simulated: 61000  inst.: 32577600 (ipc=534.1) sim_rate=374455 (inst/sec) elapsed = 0:0:01:27 / Mon Dec  2 00:42:10 2013
GPGPU-Sim PTX: 32700000 instructions simulated : ctaid=(0,5,0) tid=(15,7,0)
GPGPU-Sim PTX: 32800000 instructions simulated : ctaid=(2,9,0) tid=(15,1,0)
GPGPU-Sim PTX: 32900000 instructions simulated : ctaid=(1,3,0) tid=(15,5,0)
GPGPU-Sim PTX: 33000000 instructions simulated : ctaid=(2,4,0) tid=(15,5,0)
GPGPU-Sim PTX: 33100000 instructions simulated : ctaid=(3,6,0) tid=(15,1,0)
GPGPU-Sim uArch: cycles simulated: 62000  inst.: 33110752 (ipc=534.0) sim_rate=376258 (inst/sec) elapsed = 0:0:01:28 / Mon Dec  2 00:42:11 2013
GPGPU-Sim PTX: 33200000 instructions simulated : ctaid=(1,5,0) tid=(15,1,0)
GPGPU-Sim PTX: 33300000 instructions simulated : ctaid=(5,7,0) tid=(15,1,0)
GPGPU-Sim uArch: cycles simulated: 62500  inst.: 33371904 (ipc=534.0) sim_rate=374965 (inst/sec) elapsed = 0:0:01:29 / Mon Dec  2 00:42:12 2013
GPGPU-Sim PTX: 33400000 instructions simulated : ctaid=(2,1,0) tid=(15,5,0)
GPGPU-Sim PTX: 33500000 instructions simulated : ctaid=(7,7,0) tid=(15,3,0)
GPGPU-Sim PTX: 33600000 instructions simulated : ctaid=(2,6,0) tid=(15,5,0)
GPGPU-Sim uArch: cycles simulated: 63000  inst.: 33651264 (ipc=534.1) sim_rate=373902 (inst/sec) elapsed = 0:0:01:30 / Mon Dec  2 00:42:13 2013
GPGPU-Sim PTX: 33700000 instructions simulated : ctaid=(7,0,0) tid=(15,1,0)
GPGPU-Sim PTX: 33800000 instructions simulated : ctaid=(1,0,0) tid=(15,1,0)
GPGPU-Sim PTX: 33900000 instructions simulated : ctaid=(1,2,0) tid=(15,5,0)
GPGPU-Sim PTX: 34000000 instructions simulated : ctaid=(4,11,0) tid=(15,5,0)
GPGPU-Sim PTX: 34100000 instructions simulated : ctaid=(4,2,0) tid=(15,5,0)
GPGPU-Sim PTX: 34200000 instructions simulated : ctaid=(4,8,0) tid=(15,5,0)
GPGPU-Sim uArch: cycles simulated: 64000  inst.: 34189472 (ipc=534.2) sim_rate=375708 (inst/sec) elapsed = 0:0:01:31 / Mon Dec  2 00:42:14 2013
GPGPU-Sim PTX: 34300000 instructions simulated : ctaid=(6,1,0) tid=(15,1,0)
GPGPU-Sim PTX: 34400000 instructions simulated : ctaid=(2,10,0) tid=(15,1,0)
GPGPU-Sim uArch: cycles simulated: 64500  inst.: 34455968 (ipc=534.2) sim_rate=374521 (inst/sec) elapsed = 0:0:01:32 / Mon Dec  2 00:42:15 2013
GPGPU-Sim PTX: 34500000 instructions simulated : ctaid=(2,4,0) tid=(15,5,0)
GPGPU-Sim PTX: 34600000 instructions simulated : ctaid=(7,0,0) tid=(15,7,0)
GPGPU-Sim PTX: 34700000 instructions simulated : ctaid=(7,6,0) tid=(15,5,0)
GPGPU-Sim uArch: cycles simulated: 65000  inst.: 34733952 (ipc=534.4) sim_rate=373483 (inst/sec) elapsed = 0:0:01:33 / Mon Dec  2 00:42:16 2013
GPGPU-Sim PTX: 34800000 instructions simulated : ctaid=(4,0,0) tid=(15,7,0)
GPGPU-Sim PTX: 34900000 instructions simulated : ctaid=(4,6,0) tid=(15,1,0)
GPGPU-Sim PTX: 35000000 instructions simulated : ctaid=(0,1,0) tid=(15,3,0)
GPGPU-Sim PTX: 35100000 instructions simulated : ctaid=(6,5,0) tid=(15,7,0)
GPGPU-Sim PTX: 35200000 instructions simulated : ctaid=(4,5,0) tid=(15,5,0)
GPGPU-Sim uArch: cycles simulated: 66000  inst.: 35269216 (ipc=534.4) sim_rate=375204 (inst/sec) elapsed = 0:0:01:34 / Mon Dec  2 00:42:17 2013
GPGPU-Sim PTX: 35300000 instructions simulated : ctaid=(2,1,0) tid=(15,5,0)
GPGPU-Sim PTX: 35400000 instructions simulated : ctaid=(2,4,0) tid=(15,3,0)
GPGPU-Sim PTX: 35500000 instructions simulated : ctaid=(4,14,0) tid=(15,5,0)
GPGPU-Sim uArch: cycles simulated: 66500  inst.: 35542720 (ipc=534.5) sim_rate=374133 (inst/sec) elapsed = 0:0:01:35 / Mon Dec  2 00:42:18 2013
GPGPU-Sim PTX: 35600000 instructions simulated : ctaid=(4,3,0) tid=(15,1,0)
GPGPU-Sim PTX: 35700000 instructions simulated : ctaid=(1,4,0) tid=(15,7,0)
GPGPU-Sim PTX: 35800000 instructions simulated : ctaid=(2,7,0) tid=(15,5,0)
GPGPU-Sim PTX: 35900000 instructions simulated : ctaid=(2,6,0) tid=(15,3,0)
GPGPU-Sim PTX: 36000000 instructions simulated : ctaid=(0,7,0) tid=(15,5,0)
GPGPU-Sim uArch: cycles simulated: 67500  inst.: 36068864 (ipc=534.4) sim_rate=375717 (inst/sec) elapsed = 0:0:01:36 / Mon Dec  2 00:42:19 2013
GPGPU-Sim PTX: 36100000 instructions simulated : ctaid=(2,3,0) tid=(15,7,0)
GPGPU-Sim PTX: 36200000 instructions simulated : ctaid=(6,1,0) tid=(15,3,0)
GPGPU-Sim PTX: 36300000 instructions simulated : ctaid=(3,0,0) tid=(15,1,0)
GPGPU-Sim uArch: cycles simulated: 68000  inst.: 36348608 (ipc=534.5) sim_rate=374727 (inst/sec) elapsed = 0:0:01:37 / Mon Dec  2 00:42:20 2013
GPGPU-Sim PTX: 36400000 instructions simulated : ctaid=(5,7,0) tid=(15,7,0)
GPGPU-Sim PTX: 36500000 instructions simulated : ctaid=(5,5,0) tid=(15,1,0)
GPGPU-Sim PTX: 36600000 instructions simulated : ctaid=(5,6,0) tid=(15,5,0)
GPGPU-Sim uArch: cycles simulated: 68500  inst.: 36617824 (ipc=534.6) sim_rate=373651 (inst/sec) elapsed = 0:0:01:38 / Mon Dec  2 00:42:21 2013
GPGPU-Sim PTX: 36700000 instructions simulated : ctaid=(1,6,0) tid=(15,1,0)
GPGPU-Sim PTX: 36800000 instructions simulated : ctaid=(2,12,0) tid=(15,5,0)
GPGPU-Sim PTX: 36900000 instructions simulated : ctaid=(3,11,0) tid=(15,5,0)
GPGPU-Sim PTX: 37000000 instructions simulated : ctaid=(6,9,0) tid=(15,5,0)
GPGPU-Sim PTX: 37100000 instructions simulated : ctaid=(4,0,0) tid=(15,3,0)
GPGPU-Sim uArch: cycles simulated: 69500  inst.: 37142880 (ipc=534.4) sim_rate=375180 (inst/sec) elapsed = 0:0:01:39 / Mon Dec  2 00:42:22 2013
GPGPU-Sim PTX: 37200000 instructions simulated : ctaid=(1,14,0) tid=(15,5,0)
GPGPU-Sim PTX: 37300000 instructions simulated : ctaid=(3,3,0) tid=(15,3,0)
GPGPU-Sim PTX: 37400000 instructions simulated : ctaid=(0,9,0) tid=(15,7,0)
GPGPU-Sim uArch: cycles simulated: 70000  inst.: 37429120 (ipc=534.7) sim_rate=374291 (inst/sec) elapsed = 0:0:01:40 / Mon Dec  2 00:42:23 2013
GPGPU-Sim PTX: 37500000 instructions simulated : ctaid=(2,5,0) tid=(15,7,0)
GPGPU-Sim PTX: 37600000 instructions simulated : ctaid=(4,3,0) tid=(15,3,0)
GPGPU-Sim PTX: 37700000 instructions simulated : ctaid=(2,14,0) tid=(15,3,0)
GPGPU-Sim uArch: cycles simulated: 70500  inst.: 37714816 (ipc=535.0) sim_rate=373414 (inst/sec) elapsed = 0:0:01:41 / Mon Dec  2 00:42:24 2013
GPGPU-Sim PTX: 37800000 instructions simulated : ctaid=(5,5,0) tid=(15,3,0)
GPGPU-Sim PTX: 37900000 instructions simulated : ctaid=(6,10,0) tid=(15,7,0)
GPGPU-Sim PTX: 38000000 instructions simulated : ctaid=(3,6,0) tid=(15,3,0)
GPGPU-Sim PTX: 38100000 instructions simulated : ctaid=(3,11,0) tid=(15,7,0)
GPGPU-Sim PTX: 38200000 instructions simulated : ctaid=(6,7,0) tid=(15,5,0)
GPGPU-Sim uArch: cycles simulated: 71500  inst.: 38257344 (ipc=535.1) sim_rate=375072 (inst/sec) elapsed = 0:0:01:42 / Mon Dec  2 00:42:25 2013
GPGPU-Sim PTX: 38300000 instructions simulated : ctaid=(3,9,0) tid=(15,3,0)
GPGPU-Sim PTX: 38400000 instructions simulated : ctaid=(1,2,0) tid=(15,7,0)
GPGPU-Sim PTX: 38500000 instructions simulated : ctaid=(0,11,0) tid=(15,7,0)
GPGPU-Sim uArch: Shader 14 finished CTA #0 (71997,0), 7 CTAs running
GPGPU-Sim uArch: core: 14, cta: 0 initialized @(71998,0)
GPGPU-Sim uArch: cycles simulated: 72000  inst.: 38524992 (ipc=535.1) sim_rate=374029 (inst/sec) elapsed = 0:0:01:43 / Mon Dec  2 00:42:26 2013
GPGPU-Sim PTX: 38600000 instructions simulated : ctaid=(5,12,0) tid=(15,1,0)
GPGPU-Sim PTX: 38700000 instructions simulated : ctaid=(1,12,0) tid=(15,5,0)
GPGPU-Sim uArch: Shader 10 finished CTA #0 (72444,0), 7 CTAs running
GPGPU-Sim uArch: core: 10, cta: 0 initialized @(72445,0)
GPGPU-Sim PTX: 38800000 instructions simulated : ctaid=(7,12,0) tid=(15,1,0)
GPGPU-Sim uArch: Shader 0 finished CTA #0 (72480,0), 7 CTAs running
GPGPU-Sim uArch: core:  0, cta: 0 initialized @(72481,0)
GPGPU-Sim uArch: Shader 9 finished CTA #0 (72550,0), 7 CTAs running
GPGPU-Sim uArch: core:  9, cta: 0 initialized @(72551,0)
GPGPU-Sim PTX: 38900000 instructions simulated : ctaid=(6,8,0) tid=(15,5,0)
GPGPU-Sim uArch: Shader 2 finished CTA #0 (72665,0), 7 CTAs running
GPGPU-Sim uArch: core:  2, cta: 0 initialized @(72666,0)
GPGPU-Sim PTX: 39000000 instructions simulated : ctaid=(7,13,0) tid=(15,1,0)
GPGPU-Sim uArch: Shader 5 finished CTA #0 (72804,0), 7 CTAs running
GPGPU-Sim uArch: core:  5, cta: 0 initialized @(72805,0)
GPGPU-Sim uArch: Shader 1 finished CTA #0 (72815,0), 7 CTAs running
GPGPU-Sim uArch: core:  1, cta: 0 initialized @(72816,0)
GPGPU-Sim PTX: 39100000 instructions simulated : ctaid=(3,2,0) tid=(15,3,0)
GPGPU-Sim uArch: cycles simulated: 73000  inst.: 39086016 (ipc=535.4) sim_rate=375827 (inst/sec) elapsed = 0:0:01:44 / Mon Dec  2 00:42:27 2013
GPGPU-Sim PTX: 39200000 instructions simulated : ctaid=(4,2,0) tid=(15,3,0)
GPGPU-Sim uArch: Shader 8 finished CTA #0 (73207,0), 7 CTAs running
GPGPU-Sim uArch: core:  8, cta: 0 initialized @(73208,0)
GPGPU-Sim uArch: Shader 6 finished CTA #0 (73215,0), 7 CTAs running
GPGPU-Sim uArch: core:  6, cta: 0 initialized @(73216,0)
GPGPU-Sim PTX: 39300000 instructions simulated : ctaid=(0,12,0) tid=(15,7,0)
GPGPU-Sim uArch: Shader 12 finished CTA #0 (73484,0), 7 CTAs running
GPGPU-Sim uArch: core: 12, cta: 0 initialized @(73485,0)
GPGPU-Sim uArch: cycles simulated: 73500  inst.: 39365792 (ipc=535.6) sim_rate=374912 (inst/sec) elapsed = 0:0:01:45 / Mon Dec  2 00:42:28 2013
GPGPU-Sim PTX: 39400000 instructions simulated : ctaid=(0,9,0) tid=(15,7,0)
GPGPU-Sim PTX: 39500000 instructions simulated : ctaid=(6,14,0) tid=(15,1,0)
GPGPU-Sim uArch: Shader 13 finished CTA #0 (73759,0), 7 CTAs running
GPGPU-Sim uArch: core: 13, cta: 0 initialized @(73760,0)
GPGPU-Sim PTX: 39600000 instructions simulated : ctaid=(4,15,0) tid=(15,5,0)
GPGPU-Sim uArch: Shader 11 finished CTA #0 (73888,0), 7 CTAs running
GPGPU-Sim uArch: core: 11, cta: 0 initialized @(73889,0)
GPGPU-Sim uArch: cycles simulated: 74000  inst.: 39643552 (ipc=535.7) sim_rate=373995 (inst/sec) elapsed = 0:0:01:46 / Mon Dec  2 00:42:29 2013
GPGPU-Sim PTX: 39700000 instructions simulated : ctaid=(4,15,0) tid=(15,5,0)
GPGPU-Sim uArch: Shader 3 finished CTA #0 (74047,0), 7 CTAs running
GPGPU-Sim uArch: core:  3, cta: 0 initialized @(74048,0)
GPGPU-Sim uArch: Shader 4 finished CTA #0 (74096,0), 7 CTAs running
GPGPU-Sim uArch: core:  4, cta: 0 initialized @(74097,0)
GPGPU-Sim PTX: 39800000 instructions simulated : ctaid=(7,9,0) tid=(15,1,0)
GPGPU-Sim PTX: 39900000 instructions simulated : ctaid=(7,13,0) tid=(15,1,0)
GPGPU-Sim PTX: 40000000 instructions simulated : ctaid=(1,16,0) tid=(15,1,0)
GPGPU-Sim PTX: 40100000 instructions simulated : ctaid=(6,3,0) tid=(15,7,0)
GPGPU-Sim PTX: 40200000 instructions simulated : ctaid=(3,3,0) tid=(15,7,0)
GPGPU-Sim uArch: cycles simulated: 75000  inst.: 40192800 (ipc=535.9) sim_rate=375633 (inst/sec) elapsed = 0:0:01:47 / Mon Dec  2 00:42:30 2013
GPGPU-Sim uArch: Shader 7 finished CTA #0 (75099,0), 7 CTAs running
GPGPU-Sim uArch: core:  7, cta: 0 initialized @(75100,0)
GPGPU-Sim PTX: 40300000 instructions simulated : ctaid=(4,11,0) tid=(15,1,0)
GPGPU-Sim PTX: 40400000 instructions simulated : ctaid=(3,2,0) tid=(15,3,0)
GPGPU-Sim uArch: cycles simulated: 75500  inst.: 40467008 (ipc=536.0) sim_rate=374694 (inst/sec) elapsed = 0:0:01:48 / Mon Dec  2 00:42:31 2013
GPGPU-Sim PTX: 40500000 instructions simulated : ctaid=(6,15,0) tid=(15,5,0)
GPGPU-Sim PTX: 40600000 instructions simulated : ctaid=(2,3,0) tid=(15,7,0)
GPGPU-Sim PTX: 40700000 instructions simulated : ctaid=(4,15,0) tid=(15,5,0)
GPGPU-Sim PTX: 40800000 instructions simulated : ctaid=(3,15,0) tid=(15,1,0)
GPGPU-Sim PTX: 40900000 instructions simulated : ctaid=(7,10,0) tid=(15,3,0)
GPGPU-Sim PTX: 41000000 instructions simulated : ctaid=(1,6,0) tid=(15,3,0)
GPGPU-Sim uArch: cycles simulated: 76500  inst.: 41007936 (ipc=536.1) sim_rate=376219 (inst/sec) elapsed = 0:0:01:49 / Mon Dec  2 00:42:32 2013
GPGPU-Sim PTX: 41100000 instructions simulated : ctaid=(1,8,0) tid=(15,3,0)
GPGPU-Sim PTX: 41200000 instructions simulated : ctaid=(2,5,0) tid=(15,7,0)
GPGPU-Sim PTX: 41300000 instructions simulated : ctaid=(2,4,0) tid=(15,3,0)
GPGPU-Sim uArch: cycles simulated: 77000  inst.: 41278208 (ipc=536.1) sim_rate=375256 (inst/sec) elapsed = 0:0:01:50 / Mon Dec  2 00:42:33 2013
GPGPU-Sim PTX: 41400000 instructions simulated : ctaid=(2,9,0) tid=(15,7,0)
GPGPU-Sim PTX: 41500000 instructions simulated : ctaid=(5,16,0) tid=(15,1,0)
GPGPU-Sim uArch: cycles simulated: 77500  inst.: 41547776 (ipc=536.1) sim_rate=374304 (inst/sec) elapsed = 0:0:01:51 / Mon Dec  2 00:42:34 2013
GPGPU-Sim PTX: 41600000 instructions simulated : ctaid=(3,8,0) tid=(15,7,0)
GPGPU-Sim PTX: 41700000 instructions simulated : ctaid=(5,2,0) tid=(15,7,0)
GPGPU-Sim PTX: 41800000 instructions simulated : ctaid=(6,2,0) tid=(15,7,0)
GPGPU-Sim PTX: 41900000 instructions simulated : ctaid=(3,15,0) tid=(15,3,0)
GPGPU-Sim PTX: 42000000 instructions simulated : ctaid=(6,13,0) tid=(15,1,0)
GPGPU-Sim PTX: 42100000 instructions simulated : ctaid=(0,12,0) tid=(15,5,0)
GPGPU-Sim uArch: cycles simulated: 78500  inst.: 42093792 (ipc=536.2) sim_rate=375837 (inst/sec) elapsed = 0:0:01:52 / Mon Dec  2 00:42:35 2013
GPGPU-Sim PTX: 42200000 instructions simulated : ctaid=(4,9,0) tid=(15,7,0)
GPGPU-Sim PTX: 42300000 instructions simulated : ctaid=(5,5,0) tid=(15,7,0)
GPGPU-Sim PTX: 42400000 instructions simulated : ctaid=(2,2,0) tid=(15,7,0)
GPGPU-Sim uArch: cycles simulated: 79000  inst.: 42366656 (ipc=536.3) sim_rate=374926 (inst/sec) elapsed = 0:0:01:53 / Mon Dec  2 00:42:36 2013
GPGPU-Sim PTX: 42500000 instructions simulated : ctaid=(2,15,0) tid=(15,1,0)
GPGPU-Sim PTX: 42600000 instructions simulated : ctaid=(3,5,0) tid=(15,7,0)
GPGPU-Sim uArch: cycles simulated: 79500  inst.: 42636736 (ipc=536.3) sim_rate=374006 (inst/sec) elapsed = 0:0:01:54 / Mon Dec  2 00:42:37 2013
GPGPU-Sim PTX: 42700000 instructions simulated : ctaid=(3,15,0) tid=(15,1,0)
GPGPU-Sim PTX: 42800000 instructions simulated : ctaid=(6,6,0) tid=(15,7,0)
GPGPU-Sim PTX: 42900000 instructions simulated : ctaid=(1,13,0) tid=(15,5,0)
GPGPU-Sim PTX: 43000000 instructions simulated : ctaid=(3,4,0) tid=(15,7,0)
GPGPU-Sim PTX: 43100000 instructions simulated : ctaid=(3,5,0) tid=(15,3,0)
GPGPU-Sim PTX: 43200000 instructions simulated : ctaid=(7,2,0) tid=(15,7,0)
GPGPU-Sim uArch: cycles simulated: 80500  inst.: 43178848 (ipc=536.4) sim_rate=375468 (inst/sec) elapsed = 0:0:01:55 / Mon Dec  2 00:42:38 2013
GPGPU-Sim PTX: 43300000 instructions simulated : ctaid=(4,4,0) tid=(15,3,0)
GPGPU-Sim PTX: 43400000 instructions simulated : ctaid=(2,15,0) tid=(15,1,0)
GPGPU-Sim uArch: cycles simulated: 81000  inst.: 43446912 (ipc=536.4) sim_rate=374542 (inst/sec) elapsed = 0:0:01:56 / Mon Dec  2 00:42:39 2013
GPGPU-Sim PTX: 43500000 instructions simulated : ctaid=(2,11,0) tid=(15,3,0)
GPGPU-Sim PTX: 43600000 instructions simulated : ctaid=(2,14,0) tid=(15,1,0)
GPGPU-Sim uArch: Shader 3 finished CTA #1 (81259,0), 7 CTAs running
GPGPU-Sim uArch: core:  3, cta: 1 initialized @(81260,0)
GPGPU-Sim PTX: 43700000 instructions simulated : ctaid=(6,16,0) tid=(15,1,0)
GPGPU-Sim uArch: Shader 14 finished CTA #1 (81434,0), 7 CTAs running
GPGPU-Sim uArch: core: 14, cta: 1 initialized @(81435,0)
GPGPU-Sim uArch: Shader 10 finished CTA #1 (81516,0), 7 CTAs running
GPGPU-Sim uArch: core: 10, cta: 1 initialized @(81517,0)
GPGPU-Sim PTX: 43800000 instructions simulated : ctaid=(0,10,0) tid=(15,7,0)
[...]
gpgpu_stall_shd_mem[g_mem_st][wb_rsrv_fail] = 0
gpgpu_stall_shd_mem[l_mem_ld][mshr_rc] = 0
gpgpu_stall_shd_mem[l_mem_ld][icnt_rc] = 0
gpgpu_stall_shd_mem[l_mem_ld][wb_icnt_rc] = 0
gpgpu_stall_shd_mem[l_mem_ld][wb_rsrv_fail] = 0
gpgpu_stall_shd_mem[l_mem_st][mshr_rc] = 0
gpgpu_stall_shd_mem[l_mem_st][icnt_rc] = 0
gpgpu_stall_shd_mem[l_mem_ld][wb_icnt_rc] = 0
gpgpu_stall_shd_mem[l_mem_ld][wb_rsrv_fail] = 0
gpu_reg_bank_conflict_stalls = 0
Warp Occupancy Distribution:
Stall:2008334	W0_Idle:226632	W0_Scoreboard:910904	W1:0	W2:0	W3:0	W4:0	W5:0	W6:0	W7:0	W8:0	W9:0	W10:0	W11:0	W12:0	W13:0	W14:0	W15:0	W16:0	W17:0	W18:0	W19:0	W20:0	W21:0	W22:0	W23:0	W24:0	W25:0	W26:0	W27:0	W28:0	W29:0	W30:0	W31:0	W32:3732480
traffic_breakdown_coretomem[CONST_ACC_R] = 6120 {8:765,}
traffic_breakdown_coretomem[GLOBAL_ACC_R] = 32624 {8:4078,}
traffic_breakdown_coretomem[GLOBAL_ACC_W] = 294912 {72:4096,}
traffic_breakdown_coretomem[INST_ACC_R] = 600 {8:75,}
traffic_breakdown_memtocore[CONST_ACC_R] = 55080 {72:765,}
traffic_breakdown_memtocore[GLOBAL_ACC_R] = 554608 {136:4078,}
traffic_breakdown_memtocore[GLOBAL_ACC_W] = 32768 {8:4096,}
traffic_breakdown_memtocore[INST_ACC_R] = 10200 {136:75,}
maxmrqlatency = 127 
maxdqlatency = 0 
maxmflatency = 428 
averagemflatency = 182 
max_icnt2mem_latency = 115 
max_icnt2sh_latency = 240971 
mrq_lat_table:1900 	8 	14 	17 	43 	28 	69 	0 	0 	0 	0 	0 	0 	0 	0 	0 	0 	0 	0 	0 	0 	0 	0 	0 	0 	0 	0 	0 	0 	0 	0 	0 	
dq_lat_table:0 	0 	0 	0 	0 	0 	0 	0 	0 	0 	0 	0 	0 	0 	0 	0 	0 	0 	0 	0 	0 	0 	0 	0 	0 	0 	0 	0 	0 	0 	0 	0 	
mf_lat_table:0 	0 	0 	0 	0 	0 	0 	6651 	2288 	0 	0 	0 	0 	0 	0 	0 	0 	0 	0 	0 	0 	0 	0 	0 	0 	0 	0 	0 	0 	0 	0 	0 	
icnt2mem_lat_table:0 	0 	0 	7929 	1034 	44 	7 	0 	0 	0 	0 	0 	0 	0 	0 	0 	0 	0 	0 	0 	0 	0 	0 	0 	
icnt2sh_lat_table:0 	0 	0 	2360 	2281 	188 	14 	0 	0 	0 	0 	0 	0 	0 	0 	0 	1705 	2391 	0 	0 	0 	0 	0 	0 	
mf_lat_pw_table:0 	0 	0 	0 	0 	0 	0 	313 	16 	0 	0 	0 	0 	0 	0 	0 	0 	0 	0 	0 	0 	0 	0 	0 	0 	0 	0 	0 	0 	0 	0 	0 	
maximum concurrent accesses to same row:
dram[0]:         1         0         0         0         0         0         0         0         0         0         0         0         0         0         0         0 
dram[1]:         2         0         0         0         0         0         0         0         0         0         0         0         0         0         0         0 
dram[2]:         2         0         0         0         0         0         0         0         0         0         0         0         0         0         0         0 
dram[3]:         0         0         0         0         0         0         0         0         0         0         0         0         0         0         0         0 
dram[4]:         0         0         0         0         0         0         0         0         0         0         0         0         0         0         0         0 
dram[5]:         0         0         0         0         0         0         0         0         0         0         0         0         0         0         0         0 
maximum service time to same row:
dram[0]:     59940         0         0         0     69472     69538     69488     69516     69715     70256    102869    103259    152254    152672    187378    198784 
dram[1]:     64876         0         0         0     69510     69490     69516     69516     70031     69657    103849    102428    152226    156900    198035    198610 
dram[2]:     69759         0         0         0     69534     69475     69496     69491     70240     70034    103260    117725    152674    152862    198785    189090 
dram[3]:         0         0         0         0     69491     69488     69499     69519     69659     70104    102429    118246    156901    153134    198612    199140 
dram[4]:         0         0         0         0     69481     69535     69487     69497     69710     74381    102866    116890    152253    153304    187376    199463 
dram[5]:         0         0         0         0     69490     69488     69519     69501     70026     73884    103847    118019    152225    158203    198032    199754 
average row accesses per activate:
dram[0]:  1.250000       inf       nan       nan 10.000000 10.000000 32.000000 32.000000 32.000000 32.000000 32.000000 32.000000 32.000000 32.000000 32.000000 32.000000 
dram[1]:  1.666667       inf       nan       nan 10.000000 10.000000 32.000000 32.000000 32.000000 32.000000 32.000000 32.000000 32.000000 32.000000 32.000000 32.000000 
dram[2]:  3.000000       inf       nan       nan 10.000000 12.000000 32.000000 32.000000 32.000000 32.000000 32.000000 32.000000 32.000000 32.000000 32.000000 32.000000 
dram[3]:       inf       inf       nan       nan 10.000000 12.000000 32.000000 32.000000 32.000000 32.000000 32.000000 32.000000 32.000000 32.000000 32.000000 32.000000 
dram[4]:       inf       inf       nan       nan 10.000000 12.000000 32.000000 32.000000 32.000000 32.000000 32.000000 32.000000 32.000000 32.000000 32.000000 32.000000 
dram[5]:       inf       inf       nan       nan 10.000000 12.000000 32.000000 32.000000 32.000000 32.000000 32.000000 32.000000 32.000000 32.000000 32.000000 32.000000 
average row locality = 2079/80 = 25.987499
number of total memory accesses made:
dram[0]:         0         0         0         0         0         0         0         0         0         0         0         0         0         0         0         0 
dram[1]:         0         0         0         0         0         0         0         0         0         0         0         0         0         0         0         0 
dram[2]:         0         0         0         0         0         0         0         0         0         0         0         0         0         0         0         0 
dram[3]:         0         0         0         0         0         0         0         0         0         0         0         0         0         0         0         0 
dram[4]:         0         0         0         0         0         0         0         0         0         0         0         0         0         0         0         0 
dram[5]:         0         0         0         0         0         0         0         0         0         0         0         0         0         0         0         0 
total accesses: 0
min_bank_accesses = 0!
min_chip_accesses = 0!
number of total read accesses:
dram[0]:         5         2         0         0        10        10        32        32        32        32        32        32        32        32        32        32 
dram[1]:         5         2         0         0        10        10        32        32        32        32        32        32        32        32        32        32 
dram[2]:         3         2         0         0        10        12        32        32        32        32        32        32        32        32        32        32 
dram[3]:         2         2         0         0        10        12        32        32        32        32        32        32        32        32        32        32 
dram[4]:         2         2         0         0        10        12        32        32        32        32        32        32        32        32        32        32 
dram[5]:         2         2         0         0        10        12        32        32        32        32        32        32        32        32        32        32 
total reads: 2079
min_bank_accesses = 0!
chip skew: 347/346 = 1.00
number of total write accesses:
dram[0]:         0         0         0         0         0         0         0         0         0         0         0         0         0         0         0         0 
dram[1]:         0         0         0         0         0         0         0         0         0         0         0         0         0         0         0         0 
dram[2]:         0         0         0         0         0         0         0         0         0         0         0         0         0         0         0         0 
dram[3]:         0         0         0         0         0         0         0         0         0         0         0         0         0         0         0         0 
dram[4]:         0         0         0         0         0         0         0         0         0         0         0         0         0         0         0         0 
dram[5]:         0         0         0         0         0         0         0         0         0         0         0         0         0         0         0         0 
total reads: 0
min_bank_accesses = 0!
min_chip_accesses = 0!
average mf latency per bank:
dram[0]:       3134      5406    none      none         830       821       804       824       707       694       693       697       697       697       697       693
dram[1]:       3584      5840    none      none         842       765       815       803       697       701       694       697       692       697       698       693
dram[2]:       3727      5789    none      none         867       812       796       820       698       702       697       697       697       697       693       698
dram[3]:       5857      5851    none      none         807       785       783       805       701       696       697       693       692       692       692       698
dram[4]:       5822      5880    none      none         855       729       808       758       701       692       693       697       697       697       698       698
dram[5]:       6050      5722    none      none         803       769       778       787       696       697       698       697       698       692       699       697
maximum mf latency per bank:
dram[0]:        280       269         0         0       304       338       357       411       376       286       273       268       273       268       273       268
dram[1]:        396       269         0         0       321       276       401       428       397       298       273       268       273       268       273       268
dram[2]:        269       269         0         0       313       301       358       393       269       405       273       268       273       268       273       276
dram[3]:        269       274         0         0       298       359       346       415       276       344       273       268       273       268       273       268
dram[4]:        275       271         0         0       312       292       363       393       285       268       268       268       270       268       268       270
dram[5]:        277       269         0         0       364       334       357       389       386       268       268       268       268       269       268       268

Number of Memory Banks Accessed per Memory Operation per Warp (from 0):
0	0	0	0	0	0	0	0	0	0	0	0	0	0	0	0	0	0	0	0	0	0	0	0	0	0	0	0	0	0	0	0	0	0	0	0	0	0	0	0	0	0	0	0	0	0	0	0	0	0	0	0	0	0	0	0	0	0	0	0	0	0	0	0	0	0	0	0	0	0	0	0	0	0	0	0	0	0	0	0	0	0	0	0	0	0	0	0	0	0	0	0	0	0	0	0	
Average # of Memory Banks Accessed per Memory Operation per Warp=nan

position of mrq chosen
0	0	0	0	0	0	0	0	0	0	0	0	0	0	0	0	

average position of mrq chosen = nan
Memory Partition 0: 
Cache L2_bank_000:
MSHR contents

Cache L2_bank_001:
MSHR contents

In Dram Latency Queue (total = 0): 
DRAM[0]: 16 bks, busW=4 BL=8 CL=12, tRRD=2 tCCD=6, tRCD=12 tRAS=28 tRP=12 tRC=40
n_cmd=318082 n_nop=317368 n_act=17 n_pre=3 n_req=347 n_rd=694 n_write=0 bw_util=0.004364
n_activity=5178 dram_eff=0.2681
bk0: 10a 317976i bk1: 4a 318057i bk2: 0a 318080i bk3: 0a 318082i bk4: 20a 318024i bk5: 20a 317997i bk6: 64a 317841i bk7: 64a 317766i bk8: 64a 317942i bk9: 64a 317941i bk10: 64a 317941i bk11: 64a 317940i bk12: 64a 317943i bk13: 64a 317943i bk14: 64a 317942i bk15: 64a 317941i 
dram_util_bins: 0 0 0 0 0 0 0 0 0 0
dram_eff_bins: 0 0 0 0 0 0 0 0 0 0
mrqq: max=16 avg=0.00707365
Memory Partition 1: 
Cache L2_bank_002:
MSHR contents

Cache L2_bank_003:
MSHR contents

In Dram Latency Queue (total = 0): 
DRAM[1]: 16 bks, busW=4 BL=8 CL=12, tRRD=2 tCCD=6, tRCD=12 tRAS=28 tRP=12 tRC=40
n_cmd=318082 n_nop=317368 n_act=17 n_pre=3 n_req=347 n_rd=694 n_write=0 bw_util=0.004364
n_activity=5101 dram_eff=0.2721
bk0: 10a 317975i bk1: 4a 318056i bk2: 0a 318080i bk3: 0a 318081i bk4: 20a 318005i bk5: 20a 318025i bk6: 64a 317855i bk7: 64a 317768i bk8: 64a 317943i bk9: 64a 317942i bk10: 64a 317941i bk11: 64a 317942i bk12: 64a 317938i bk13: 64a 317939i bk14: 64a 317940i bk15: 64a 317937i 
dram_util_bins: 0 0 0 0 0 0 0 0 0 0
dram_eff_bins: 0 0 0 0 0 0 0 0 0 0
mrqq: max=16 avg=0.00732516
Memory Partition 2: 
Cache L2_bank_004:
MSHR contents

Cache L2_bank_005:
MSHR contents

In Dram Latency Queue (total = 0): 
DRAM[2]: 16 bks, busW=4 BL=8 CL=12, tRRD=2 tCCD=6, tRCD=12 tRAS=28 tRP=12 tRC=40
n_cmd=318082 n_nop=317372 n_act=15 n_pre=1 n_req=347 n_rd=694 n_write=0 bw_util=0.004364
n_activity=5082 dram_eff=0.2731
bk0: 6a 318030i bk1: 4a 318057i bk2: 0a 318077i bk3: 0a 318080i bk4: 20a 318000i bk5: 24a 317989i bk6: 64a 317841i bk7: 64a 317784i bk8: 64a 317946i bk9: 64a 317940i bk10: 64a 317941i bk11: 64a 317943i bk12: 64a 317942i bk13: 64a 317941i bk14: 64a 317941i bk15: 64a 317939i 
dram_util_bins: 0 0 0 0 0 0 0 0 0 0
dram_eff_bins: 0 0 0 0 0 0 0 0 0 0
mrqq: max=16 avg=0.00600788
Memory Partition 3: 
Cache L2_bank_006:
MSHR contents

Cache L2_bank_007:
MSHR contents

In Dram Latency Queue (total = 0): 
DRAM[3]: 16 bks, busW=4 BL=8 CL=12, tRRD=2 tCCD=6, tRCD=12 tRAS=28 tRP=12 tRC=40
n_cmd=318082 n_nop=317376 n_act=14 n_pre=0 n_req=346 n_rd=692 n_write=0 bw_util=0.004351
n_activity=4897 dram_eff=0.2826
bk0: 4a 318056i bk1: 4a 318058i bk2: 0a 318077i bk3: 0a 318083i bk4: 20a 318023i bk5: 24a 317992i bk6: 64a 317853i bk7: 64a 317792i bk8: 64a 317944i bk9: 64a 317945i bk10: 64a 317941i bk11: 64a 317941i bk12: 64a 317941i bk13: 64a 317938i bk14: 64a 317935i bk15: 64a 317934i 
dram_util_bins: 0 0 0 0 0 0 0 0 0 0
dram_eff_bins: 0 0 0 0 0 0 0 0 0 0
mrqq: max=16 avg=0.00601732
Memory Partition 4: 
Cache L2_bank_008:
MSHR contents

Cache L2_bank_009:
MSHR contents

In Dram Latency Queue (total = 0): 
DRAM[4]: 16 bks, busW=4 BL=8 CL=12, tRRD=2 tCCD=6, tRCD=12 tRAS=28 tRP=12 tRC=40
n_cmd=318082 n_nop=317376 n_act=14 n_pre=0 n_req=346 n_rd=692 n_write=0 bw_util=0.004351
n_activity=5066 dram_eff=0.2732
bk0: 4a 318057i bk1: 4a 318060i bk2: 0a 318080i bk3: 0a 318083i bk4: 20a 318016i bk5: 24a 318000i bk6: 64a 317840i bk7: 64a 317778i bk8: 64a 317943i bk9: 64a 317943i bk10: 64a 317942i bk11: 64a 317941i bk12: 64a 317940i bk13: 64a 317939i bk14: 64a 317937i bk15: 64a 317938i 
dram_util_bins: 0 0 0 0 0 0 0 0 0 0
dram_eff_bins: 0 0 0 0 0 0 0 0 0 0
mrqq: max=16 avg=0.00576267
Memory Partition 5: 
Cache L2_bank_010:
MSHR contents

Cache L2_bank_011:
MSHR contents

In Dram Latency Queue (total = 0): 
DRAM[5]: 16 bks, busW=4 BL=8 CL=12, tRRD=2 tCCD=6, tRCD=12 tRAS=28 tRP=12 tRC=40
n_cmd=318082 n_nop=317376 n_act=14 n_pre=0 n_req=346 n_rd=692 n_write=0 bw_util=0.004351
n_activity=5012 dram_eff=0.2761
bk0: 4a 318058i bk1: 4a 318058i bk2: 0a 318077i bk3: 0a 318081i bk4: 20a 318005i bk5: 24a 317993i bk6: 64a 317860i bk7: 64a 317773i bk8: 64a 317944i bk9: 64a 317946i bk10: 64a 317945i bk11: 64a 317942i bk12: 64a 317938i bk13: 64a 317940i bk14: 64a 317937i bk15: 64a 317938i 
dram_util_bins: 0 0 0 0 0 0 0 0 0 0
dram_eff_bins: 0 0 0 0 0 0 0 0 0 0
mrqq: max=14 avg=0.00460573

========= L2 cache stats =========
L2_cache_bank[0]: Access = 784, Miss = 175, Miss_rate = 0.223, Pending_hits = 15, Reservation_fails = 535
L2_cache_bank[1]: Access = 738, Miss = 172, Miss_rate = 0.233, Pending_hits = 6, Reservation_fails = 122
L2_cache_bank[2]: Access = 796, Miss = 175, Miss_rate = 0.220, Pending_hits = 15, Reservation_fails = 494
L2_cache_bank[3]: Access = 739, Miss = 172, Miss_rate = 0.233, Pending_hits = 6, Reservation_fails = 168
L2_cache_bank[4]: Access = 754, Miss = 173, Miss_rate = 0.229, Pending_hits = 9, Reservation_fails = 257
L2_cache_bank[5]: Access = 748, Miss = 174, Miss_rate = 0.233, Pending_hits = 6, Reservation_fails = 175
L2_cache_bank[6]: Access = 738, Miss = 172, Miss_rate = 0.233, Pending_hits = 6, Reservation_fails = 201
L2_cache_bank[7]: Access = 745, Miss = 174, Miss_rate = 0.234, Pending_hits = 6, Reservation_fails = 176
L2_cache_bank[8]: Access = 739, Miss = 172, Miss_rate = 0.233, Pending_hits = 6, Reservation_fails = 182
L2_cache_bank[9]: Access = 747, Miss = 174, Miss_rate = 0.233, Pending_hits = 6, Reservation_fails = 187
L2_cache_bank[10]: Access = 739, Miss = 172, Miss_rate = 0.233, Pending_hits = 6, Reservation_fails = 207
L2_cache_bank[11]: Access = 747, Miss = 174, Miss_rate = 0.233, Pending_hits = 6, Reservation_fails = 148
L2_total_cache_accesses = 9014
L2_total_cache_misses = 2079
L2_total_cache_miss_rate = 0.2306
L2_total_cache_pending_hits = 93
L2_total_cache_reservation_fails = 2852
L2_total_cache_breakdown:
	L2_cache_stats_breakdown[GLOBAL_ACC_R][HIT] = 2030
	L2_cache_stats_breakdown[GLOBAL_ACC_R][MISS] = 2048
	L2_cache_stats_breakdown[CONST_ACC_R][HIT] = 661
	L2_cache_stats_breakdown[CONST_ACC_R][HIT_RESERVED] = 78
	L2_cache_stats_breakdown[CONST_ACC_R][MISS] = 26
	L2_cache_stats_breakdown[CONST_ACC_R][RESERVATION_FAIL] = 2290
	L2_cache_stats_breakdown[GLOBAL_ACC_W][HIT] = 4096
	L2_cache_stats_breakdown[INST_ACC_R][HIT] = 55
	L2_cache_stats_breakdown[INST_ACC_R][HIT_RESERVED] = 15
	L2_cache_stats_breakdown[INST_ACC_R][MISS] = 5
	L2_cache_stats_breakdown[INST_ACC_R][RESERVATION_FAIL] = 562
L2_cache_data_port_util = 0.006
L2_cache_fill_port_util = 0.003

icnt_total_pkts_mem_to_simt=27156
icnt_total_pkts_simt_to_mem=17206
LD_mem_lat_dist  0 0 0 0 0 0 0 0 0 0 0 0 0 0 0 0 0 0 0 0 0 0 0 0 0 0 0
ST_mem_lat_dist  0 0 0 0 0 0 0 0 0 0 0 0 0 0 0 0 0 0 0 0 0 0 0 0 0 0 0
----------------------------Interconnect-DETAILS--------------------------------
Class 0:
Packet latency average = 10.3944
	minimum = 6
	maximum = 82
Network latency average = 9.23841
	minimum = 6
	maximum = 64
Slowest packet = 2500
Flit latency average = 8.10843
	minimum = 6
	maximum = 62
Slowest flit = 5770
Fragmentation average = 0.00305081
	minimum = 0
	maximum = 55
Injected packet rate average = 0.00277088
	minimum = 0.00247332 (at node 2)
	maximum = 0.00330329 (at node 17)
Accepted packet rate average = 0.00277088
	minimum = 0.00247332 (at node 2)
	maximum = 0.00330329 (at node 17)
Injected flit rate average = 0.00681837
	minimum = 0.00473084 (at node 2)
	maximum = 0.0101257 (at node 17)
Accepted flit rate average= 0.00681837
	minimum = 0.0058845 (at node 16)
	maximum = 0.00786813 (at node 14)
Injected packet length average = 2.46073
Accepted packet length average = 2.46073
Total in-flight flits = 0 (0 measured)
====== Overall Traffic Statistics ======
====== Traffic class 0 ======
Packet latency average = 10.3944 (1 samples)
	minimum = 6 (1 samples)
	maximum = 82 (1 samples)
Network latency average = 9.23841 (1 samples)
	minimum = 6 (1 samples)
	maximum = 64 (1 samples)
Flit latency average = 8.10843 (1 samples)
	minimum = 6 (1 samples)
	maximum = 62 (1 samples)
Fragmentation average = 0.00305081 (1 samples)
	minimum = 0 (1 samples)
	maximum = 55 (1 samples)
Injected packet rate average = 0.00277088 (1 samples)
	minimum = 0.00247332 (1 samples)
	maximum = 0.00330329 (1 samples)
Accepted packet rate average = 0.00277088 (1 samples)
	minimum = 0.00247332 (1 samples)
	maximum = 0.00330329 (1 samples)
Injected flit rate average = 0.00681837 (1 samples)
	minimum = 0.00473084 (1 samples)
	maximum = 0.0101257 (1 samples)
Accepted flit rate average = 0.00681837 (1 samples)
	minimum = 0.0058845 (1 samples)
	maximum = 0.00786813 (1 samples)
Injected packet size average = 2.46073 (1 samples)
Accepted packet size average = 2.46073 (1 samples)
Hops average = 1 (1 samples)
----------------------------END-of-Interconnect-DETAILS-------------------------


gpgpu_simulation_time = 0 days, 0 hrs, 5 min, 26 sec (326 sec)
gpgpu_simulation_rate = 366177 (inst/sec)
gpgpu_simulation_rate = 739 (cycle/sec)
IO:      0.000000
GPU:     325.934107
Copy:    0.025360
Compute: 0.000205
